**------------------------------------------------------------------------------
**INDENTATION SIMULATION
**------------------------------------------------------------------------------
*HEADING
Abapy Indentation Simulation
*PREPRINT, ECHO=NO, MODEL=NO, HISTORY=NO, CONTACT=NO
**------------------------------------------------------------------------------
** SAMPLE DEFINITION
**------------------------------------------------------------------------------
*PART, NAME = P_SAMPLE
********************************************************************************
** NODES ***********************************************************************
********************************************************************************
*NODE
  1, 0.0, 0.0, 0.0
  2, 0.0, -1.0, 0.0
  3, 1.0, -1.0, 0.0
  4, 1.0, 0.0, 0.0
  5, 0.0, -2.0, 0.0
  6, 2.0, 0.0, 0.0
  7, 0.0, -100.0, 0.0
  8, 100.0, 0.0, 0.0
  9, 0.0, -0.06249999999987293, 0.0
  10, 0.0, -0.1249999999997731, 0.0
  11, 0.0, -0.1874999999995934, 0.0
  12, 0.0, -0.2499999999994109, 0.0
  13, 0.0, -0.3124999999992285, 0.0
  14, 0.0, -0.3749999999990461, 0.0
  15, 0.0, -0.4374999999988636, 0.0
  16, 0.0, -0.4999999999986921, 0.0
  17, 0.0, -0.562499999998846, 0.0
  18, 0.0, -0.6249999999990109, 0.0
  19, 0.0, -0.6874999999991758, 0.0
  20, 0.0, -0.7499999999993406, 0.0
** ... 722 like lines cut
********************************************************************************
** NODE SETS *******************************************************************
********************************************************************************
*NSET, NSET=ALL_NODES
  1,2,3,4,5,6,7,8,9,10,11,12,13,14,15,
  16,17,18,19,20,21,22,23,24,25,26,27,28,
  29,30,31,32,33,34,35,36,37,38,39,40,41,
  42,43,44,45,46,47,48,49,50,51,52,53,54,
  55,56,57,58,59,60,61,62,63,64,65,66,67,
  68,69,70,71,72,73,74,75,76,77,78,79,80,
  81,82,83,84,85,86,87,88,89,90,91,92,93,
  94,95,96,97,98,99,100,101,102,103,104,
  105,106,107,108,109,110,111,112,113,
  114,115,116,117,118,119,120,121,122,
  123,124,125,126,127,128,129,130,131,
  132,133,134,135,136,137,138,139,140,
  141,142,143,144,145,146,147,148,149,
  150,151,152,153,154,155,156,157,158,
  159,160,161,162,163,164,165,166,167,
  168,169,170,171,172,173,174,175,176,
  177,178,179,180,181,182,183,184,185,
  186,187,188,189,190,191,192,193,194,
  195,196,197,198,199,200,201,202,203,
  204,205,206,207,208,209,210,211,212,
** ... 59 like lines cut
*NSET, NSET=SURFACE
  1,4,6,54,55,56,57,58,59,60,61,62,63,
  64,65,66,67,68,113,114,115,116,117,118,
  119,120,121,122,123,124,125,
*NSET, NSET=BOTTOM
  7,8,127,128,129,130,131,132,133,134,
  135,136,137,138,139,140,141,142,143,
  144,145,146,147,148,149,150,151,152,
  153,154,155,156,157,
*NSET, NSET=AXIS
  1,2,5,7,9,10,11,12,13,14,15,16,17,18,
  19,20,21,22,23,69,70,71,72,73,74,75,76,
  77,78,79,80,81,126
********************************************************************************
** ELEMENTS ********************************************************************
********************************************************************************
*ELEMENT, TYPE=CAX4
  95, 1, 9, 159, 68
  96, 68, 159, 160, 67
  97, 67, 160, 161, 66
  98, 66, 161, 162, 65
  99, 65, 162, 163, 64
  100, 64, 163, 164, 63
  101, 63, 164, 165, 62
  102, 62, 165, 166, 61
  103, 61, 166, 167, 60
  104, 60, 167, 168, 59
  105, 59, 168, 169, 58
  106, 58, 169, 170, 57
  107, 57, 170, 171, 56
  108, 56, 171, 172, 55
  109, 55, 172, 173, 54
  110, 54, 173, 53, 4
  111, 9, 10, 174, 159
  112, 159, 174, 175, 160
  113, 160, 175, 176, 161
  114, 161, 176, 177, 162
** ... 673 like lines cut
********************************************************************************
** ELEMENT SETS ****************************************************************
********************************************************************************
*ELSET, ELSET=SHELL2
  724,725,726,727,728,729,730,731,732,
  733,734,735,736,737,738,739,740,741,
  742,743,744,745,746,747,748,749,750,
  751,752,753,754,755,756,757,758,759,
  760,761,762,763,764,765,766,767,768,
  769,770,771,772,773,774,775,776,777,
  778,779,780,781,782,783,784,785,786,
  787,
*ELSET, ELSET=SHELL1
  351,352,353,354,355,356,357,358,359,
  360,361,362,363,364,365,366,367,368,
  369,370,371,372,373,374,375,376,377,
  378,379,380,381,382,383,384,385,386,
  387,388,389,390,391,392,393,394,395,
  396,397,398,399,400,401,402,403,404,
  405,406,407,408,409,410,411,412,413,
  414,415,416,417,418,419,420,421,422,
  423,424,425,426,427,428,429,430,431,
  432,433,434,435,436,437,438,439,440,
  441,442,443,444,445,446,447,448,449,
  450,451,452,453,454,455,456,457,458,
  459,460,461,462,463,464,465,466,467,
  468,469,470,471,472,473,474,475,476,
  477,478,479,480,481,482,483,484,485,
  486,487,488,489,490,491,492,493,494,
  495,496,497,498,499,500,501,502,503,
  504,505,506,507,508,509,510,511,512,
  513,514,515,516,517,518,519,520,521,
  522,523,524,525,526,527,528,529,530,
** ... 22 like lines cut
*ELSET, ELSET=CORE
  95,96,97,98,99,100,101,102,103,104,
  105,106,107,108,109,110,111,112,113,
  114,115,116,117,118,119,120,121,122,
  123,124,125,126,127,128,129,130,131,
  132,133,134,135,136,137,138,139,140,
  141,142,143,144,145,146,147,148,149,
  150,151,152,153,154,155,156,157,158,
  159,160,161,162,163,164,165,166,167,
  168,169,170,171,172,173,174,175,176,
  177,178,179,180,181,182,183,184,185,
  186,187,188,189,190,191,192,193,194,
  195,196,197,198,199,200,201,202,203,
  204,205,206,207,208,209,210,211,212,
  213,214,215,216,217,218,219,220,221,
  222,223,224,225,226,227,228,229,230,
  231,232,233,234,235,236,237,238,239,
  240,241,242,243,244,245,246,247,248,
  249,250,251,252,253,254,255,256,257,
  258,259,260,261,262,263,264,265,266,
  267,268,269,270,271,272,273,274,275,
** ... 9 like lines cut
*ELSET, ELSET=ALL_ELEMENTS
  95,96,97,98,99,100,101,102,103,104,
  105,106,107,108,109,110,111,112,113,
  114,115,116,117,118,119,120,121,122,
  123,124,125,126,127,128,129,130,131,
  132,133,134,135,136,137,138,139,140,
  141,142,143,144,145,146,147,148,149,
  150,151,152,153,154,155,156,157,158,
  159,160,161,162,163,164,165,166,167,
  168,169,170,171,172,173,174,175,176,
  177,178,179,180,181,182,183,184,185,
  186,187,188,189,190,191,192,193,194,
  195,196,197,198,199,200,201,202,203,
  204,205,206,207,208,209,210,211,212,
  213,214,215,216,217,218,219,220,221,
  222,223,224,225,226,227,228,229,230,
  231,232,233,234,235,236,237,238,239,
  240,241,242,243,244,245,246,247,248,
  249,250,251,252,253,254,255,256,257,
  258,259,260,261,262,263,264,265,266,
  267,268,269,270,271,272,273,274,275,
** ... 57 like lines cut
*ELSET, ELSET=_SURF_SURFACE_FACE1
  427,459,
*ELSET, ELSET=_SURF_SURFACE_FACE2
  510,
*ELSET, ELSET=_SURF_SURFACE_FACE4
  95,96,97,98,99,100,101,102,103,104,
  105,106,107,108,109,110,408,422,500,
  502,509,515,526,530,602,606,608,
*ELSET, ELSET=_MAT_SAMPLE_MAT
  95,96,97,98,99,100,101,102,103,104,
  105,106,107,108,109,110,111,112,113,
  114,115,116,117,118,119,120,121,122,
  123,124,125,126,127,128,129,130,131,
  132,133,134,135,136,137,138,139,140,
  141,142,143,144,145,146,147,148,149,
  150,151,152,153,154,155,156,157,158,
  159,160,161,162,163,164,165,166,167,
  168,169,170,171,172,173,174,175,176,
  177,178,179,180,181,182,183,184,185,
  186,187,188,189,190,191,192,193,194,
  195,196,197,198,199,200,201,202,203,
  204,205,206,207,208,209,210,211,212,
  213,214,215,216,217,218,219,220,221,
  222,223,224,225,226,227,228,229,230,
  231,232,233,234,235,236,237,238,239,
  240,241,242,243,244,245,246,247,248,
  249,250,251,252,253,254,255,256,257,
  258,259,260,261,262,263,264,265,266,
  267,268,269,270,271,272,273,274,275,
** ... 57 like lines cut
********************************************************************************
** SURFACES ********************************************************************
********************************************************************************
*SURFACE, TYPE=ELEMENT, NAME=SURFACE
  _SURF_SURFACE_FACE1, S1
  _SURF_SURFACE_FACE2, S2
  _SURF_SURFACE_FACE4, S4 
********************************************************************************
** SECTIONS ********************************************************************
********************************************************************************
*SOLID SECTION, ELSET=_MAT_SAMPLE_MAT, MATERIAL=SAMPLE_MAT
*END PART
**------------------------------------------------------------------------------
** INDENTER DEFINITION
**------------------------------------------------------------------------------
*PART, NAME = P_INDENTER
********************************************************************************
** NODES ***********************************************************************
********************************************************************************
*NODE
  1, 0.0, 0.0, 0.0
  2, 0.866025403784, 0.5, 0.0
  3, 5.0, 7.660254037839999, 0.0
  4, 0.0, 9.0, 0.0
  5, 0.08715574274744063, 0.0038053019082354704, 0.0
  6, 0.17364817766651802, 0.01519224698771926, 0.0
  7, 0.2588190451018715, 0.034074173710757716, 0.0
  8, 0.3420201433247647, 0.06030737921376261, 0.0
  9, 0.4226182617395782, 0.09369221296282716, 0.0
  10, 0.4999999999988046, 0.1339745962148712, 0.0
  11, 0.5735764363501329, 0.1808479557103688, 0.0
  12, 0.6427876096857565, 0.2339555568803652, 0.0
  13, 0.7071067811860066, 0.2928932188129115, 0.0
  14, 0.7660444431185858, 0.3572123903129931, 0.0
  15, 0.8191520442887742, 0.4264235636486431, 0.0
  16, 0.924792979703716, 0.6017884273305365, 0.0
  17, 1.00715855669252, 0.7444497914697683, 0.0
  18, 1.1225978603184399, 0.944396530540088, 0.0
  19, 1.284391577340565, 1.2246314687676292, 0.0
  20, 1.5111532546235689, 1.617394215031046, 0.0
** ... 112 like lines cut
********************************************************************************
** NODE SETS *******************************************************************
********************************************************************************
*NSET, NSET=ALL_NODES
  1,2,3,4,5,6,7,8,9,10,11,12,13,14,15,
  16,17,18,19,20,21,22,23,24,25,26,27,28,
  29,30,31,32,33,34,35,36,37,38,39,40,41,
  42,43,44,45,46,47,48,49,50,51,52,53,54,
  55,56,57,58,59,60,61,62,63,64,65,66,67,
  68,69,70,71,72,73,74,75,76,77,78,79,80,
  81,82,83,84,85,86,87,88,89,90,91,92,93,
  94,95,96,97,98,99,100,101,102,103,104,
  105,106,107,108,109,110,111,112,113,
  114,115,116,117,118,119,120,121,122,
  123,124,125,126,127,128,129,130,131,
  132,
*NSET, NSET=SURFACE
  1,2,3,5,6,7,8,9,10,11,12,13,14,15,16,
  17,18,19,20,21,22,23,24,
*NSET, NSET=BOTTOM
  3,4,25,
*NSET, NSET=AXIS
  1,4,26,27,28,29,30,31,32,33,34,35,36,
  37,38,39,40,41,42,43,44,
*NSET, NSET=TIP_NODE
  1,
*NSET, NSET=REF_NODE
  4,
*NSET, NSET=RIGID_NODES
  3,4,25
********************************************************************************
** ELEMENTS ********************************************************************
********************************************************************************
*ELEMENT, TYPE=CAX4
  45, 27, 55, 62, 26
  46, 126, 106, 128, 121
  47, 31, 53, 73, 30
  48, 33, 47, 75, 32
  49, 121, 128, 129, 132
  50, 122, 118, 119, 107
  51, 88, 67, 57, 73
  52, 121, 101, 70, 108
  53, 102, 88, 73, 53
  54, 74, 94, 58, 87
  55, 125, 100, 72, 105
  56, 53, 75, 95, 102
  57, 62, 85, 23, 24
  58, 49, 72, 16, 17
  59, 88, 102, 93, 76
  60, 76, 93, 108, 70
  61, 67, 88, 76, 52
  62, 52, 76, 70, 68
  63, 57, 65, 55, 81
  64, 72, 49, 101, 105
** ... 89 like lines cut
********************************************************************************
** ELEMENT SETS ****************************************************************
********************************************************************************
*ELSET, ELSET=ALL_ELEMENTS
  45,46,47,48,49,50,51,52,53,54,55,56,
  57,58,59,60,61,62,63,64,65,66,67,68,69,
  70,71,72,73,74,75,76,77,78,79,80,81,82,
  83,84,85,86,87,88,89,90,91,92,93,94,95,
  96,97,98,99,100,101,102,103,104,105,
  106,107,108,109,110,111,112,113,114,
  115,116,117,118,119,120,121,122,123,
  124,125,126,127,128,129,130,131,132,
  133,134,135,136,137,138,139,140,141,
  142,143,144,145,146,147,148,149,150,
  151,152,153,
*ELSET, ELSET=_SURF_SURFACE_FACE1
  65,66,67,69,70,72,83,112,119,126,142,
  146,
*ELSET, ELSET=_SURF_SURFACE_FACE2
  123,124,130,
*ELSET, ELSET=_SURF_SURFACE_FACE3
  57,58,100,102,116,125,127,
*ELSET, ELSET=_MAT_INDENTER_MAT
  45,46,47,48,49,50,51,52,53,54,55,56,
  57,58,59,60,61,62,63,64,65,66,67,68,69,
  70,71,72,73,74,75,76,77,78,79,80,81,82,
  83,84,85,86,87,88,89,90,91,92,93,94,95,
  96,97,98,99,100,101,102,103,104,105,
  106,107,108,109,110,111,112,113,114,
  115,116,117,118,119,120,121,122,123,
  124,125,126,127,128,129,130,131,132,
  133,134,135,136,137,138,139,140,141,
  142,143,144,145,146,147,148,149,150,
  151,152,153
********************************************************************************
** SURFACES ********************************************************************
********************************************************************************
*SURFACE, TYPE=ELEMENT, NAME=SURFACE
  _SURF_SURFACE_FACE1, S1
  _SURF_SURFACE_FACE2, S2
  _SURF_SURFACE_FACE3, S3 
********************************************************************************
** SECTIONS ********************************************************************
********************************************************************************
*SOLID SECTION, ELSET=_MAT_INDENTER_MAT, MATERIAL=INDENTER_MAT
*RIGID BODY, REF NODE = REF_NODE, PIN NSET=RIGID_NODES
*END PART
**------------------------------------------------------------------------------
** ASSEMBLY
**------------------------------------------------------------------------------
*ASSEMBLY, NAME = ASSEMBLY
*INSTANCE, NAME = I_SAMPLE, PART = P_SAMPLE
*END INSTANCE
*INSTANCE, NAME = I_INDENTER, PART= P_INDENTER
*END INSTANCE
*END ASSEMBLY
**------------------------------------------------------------------------------
** SURFACE INTERACTIONS
**------------------------------------------------------------------------------
*SURFACE INTERACTION, NAME = SURF_INT
*FRICTION
0.0,
*SURFACE BEHAVIOR, PRESSURE-OVERCLOSURE = HARD
*CONTACT PAIR, INTERACTION = SURF_INT, SUPPLEMENTARY CONSTRAINTS = NO, TYPE= NODE TO SURFACE
I_SAMPLE.SURFACE, I_INDENTER.SURFACE
**------------------------------------------------------------------------------
** MATERIALS
**------------------------------------------------------------------------------
********************************************************************************
** MATERIAL CLASS: Hollomon / LABEL: SAMPLE_MAT
********************************************************************************
** Poisson_ratio = 0.3
** Young_modulus = 1.0
** hardening_exponent = 0.2
** label = SAMPLE_MAT
** max_strain = 10.0
** strain_data_points = 10
** yield_stress = 0.01
*MATERIAL, NAME = SAMPLE_MAT
*ELASTIC
  1.0, 0.3
*PLASTIC
0.01,0.0
0.011659144011798317,0.009885202888520522
0.013593563908785257,0.03282232442734253
0.015848931924611138,0.08415106807538887
0.01847849797422291,0.19696497102896543
0.02154434690031884,0.44261453646095894
0.0251188643150958,0.9748811356849042
0.029286445646252362,2.12514824438563
0.03414548873833602,4.607443344874442
0.03981071705534973,9.96018928294465
********************************************************************************
** MATERIAL CLASS: Hollomon / LABEL: INDENTER_MAT
********************************************************************************
** Poisson_ratio = 0.3
** Young_modulus = 1.0
** hardening_exponent = 0.2
** label = INDENTER_MAT
** max_strain = 10.0
** strain_data_points = 10
** yield_stress = 0.01
*MATERIAL, NAME = INDENTER_MAT
*ELASTIC
  1.0, 0.3
*PLASTIC
0.01,0.0
0.011659144011798317,0.009885202888520522
0.013593563908785257,0.03282232442734253
0.015848931924611138,0.08415106807538887
0.01847849797422291,0.19696497102896543
0.02154434690031884,0.44261453646095894
0.0251188643150958,0.9748811356849042
0.029286445646252362,2.12514824438563
0.03414548873833602,4.607443344874442
0.03981071705534973,9.96018928294465
**------------------------------------------------------------------------------
** STEPS
**------------------------------------------------------------------------------
**------------------------------------------------------------------------------
** STEP: LOADING1
**------------------------------------------------------------------------------
*STEP, NAME = LOADING1, NLGEOM = YES, INC=1000000
*STATIC
0.02, 1.0, 1e-08, 0.02
*BOUNDARY, OP=NEW
I_SAMPLE.AXIS, 1, 1
I_SAMPLE.BOTTOM, 1, 3
I_INDENTER.AXIS, 1, 1
I_INDENTER.REF_NODE, 4, 6 
I_INDENTER.REF_NODE, 2, 2, -0.1
*RESTART, WRITE, FREQUENCY = 0
*OUTPUT, FIELD, FREQUENCY = 999999
*NODE OUTPUT
COORD, U, 
*NODE OUTPUT, NSET=I_INDENTER.REF_NODE
U
*ELEMENT OUTPUT, ELSET=I_SAMPLE.ALL_ELEMENTS, DIRECTIONS = YES
LE, EE, PE, PEEQ, S, 
*ELEMENT OUTPUT, ELSET=I_INDENTER.ALL_ELEMENTS, DIRECTIONS = YES
LE, EE, PE, PEEQ, S, 
*OUTPUT, HISTORY
*ENERGY OUTPUT
ALLFD, ALLWK
*ENERGY OUTPUT, ELSET=I_SAMPLE.ALL_ELEMENTS
ALLPD, ALLSE
*ENERGY OUTPUT, ELSET=I_INDENTER.ALL_ELEMENTS
ALLPD, ALLSE
*CONTACT OUTPUT, NSET=I_SAMPLE.SURFACE
CPRESS
*NODE OUTPUT, NSET=I_INDENTER.REF_NODE
U2, RF2, CF2
*NODE OUTPUT, NSET=I_INDENTER.TIP_NODE
U2
*NODE OUTPUT, NSET = I_SAMPLE.SURFACE
COOR1, COOR2, COOR3
*END STEP
**------------------------------------------------------------------------------
** STEP: UNLOADING1
**------------------------------------------------------------------------------
*STEP, NAME = UNLOADING1, NLGEOM = YES, INC=1000000
*STATIC
0.02, 1.0, 1e-08, 0.02
*BOUNDARY, OP=NEW
I_SAMPLE.AXIS, 1, 1
I_SAMPLE.BOTTOM, 1, 3
I_INDENTER.AXIS, 1, 1
I_INDENTER.REF_NODE, 4, 6 
*CLOAD
I_INDENTER.REF_NODE, 2, 0.0
*RESTART, WRITE, FREQUENCY = 0
*OUTPUT, FIELD, FREQUENCY = 999999
*NODE OUTPUT
COORD, U, 
*NODE OUTPUT, NSET=I_INDENTER.REF_NODE
U
*ELEMENT OUTPUT, ELSET=I_SAMPLE.ALL_ELEMENTS, DIRECTIONS = YES
LE, EE, PE, PEEQ, S, 
*ELEMENT OUTPUT, ELSET=I_INDENTER.ALL_ELEMENTS, DIRECTIONS = YES
LE, EE, PE, PEEQ, S, 
*OUTPUT, HISTORY
*ENERGY OUTPUT
ALLFD, ALLWK
*ENERGY OUTPUT, ELSET=I_SAMPLE.ALL_ELEMENTS
ALLPD, ALLSE
*ENERGY OUTPUT, ELSET=I_INDENTER.ALL_ELEMENTS
ALLPD, ALLSE
*CONTACT OUTPUT, NSET=I_SAMPLE.SURFACE
CPRESS
*NODE OUTPUT, NSET=I_INDENTER.REF_NODE
U2, RF2, CF2
*NODE OUTPUT, NSET=I_INDENTER.TIP_NODE
U2
*NODE OUTPUT, NSET = I_SAMPLE.SURFACE
COOR1, COOR2, COOR3
*END STEP
**------------------------------------------------------------------------------
** STEP: RELOADING1
**------------------------------------------------------------------------------
*STEP, NAME = RELOADING1, NLGEOM = YES, INC=1000000
*STATIC
0.02, 1.0, 1e-08, 0.02
*BOUNDARY, OP=NEW
I_SAMPLE.AXIS, 1, 1
I_SAMPLE.BOTTOM, 1, 3
I_INDENTER.AXIS, 1, 1
I_INDENTER.REF_NODE, 4, 6 
I_INDENTER.REF_NODE, 2, 2, -0.1
*RESTART, WRITE, FREQUENCY = 0
*OUTPUT, FIELD, FREQUENCY = 999999
*NODE OUTPUT
COORD, U, 
*NODE OUTPUT, NSET=I_INDENTER.REF_NODE
U
*ELEMENT OUTPUT, ELSET=I_SAMPLE.ALL_ELEMENTS, DIRECTIONS = YES
LE, EE, PE, PEEQ, S, 
*ELEMENT OUTPUT, ELSET=I_INDENTER.ALL_ELEMENTS, DIRECTIONS = YES
LE, EE, PE, PEEQ, S, 
*OUTPUT, HISTORY
*ENERGY OUTPUT
ALLFD, ALLWK
*ENERGY OUTPUT, ELSET=I_SAMPLE.ALL_ELEMENTS
ALLPD, ALLSE
*ENERGY OUTPUT, ELSET=I_INDENTER.ALL_ELEMENTS
ALLPD, ALLSE
*CONTACT OUTPUT, NSET=I_SAMPLE.SURFACE
CPRESS
*NODE OUTPUT, NSET=I_INDENTER.REF_NODE
U2, RF2, CF2
*NODE OUTPUT, NSET=I_INDENTER.TIP_NODE
U2
*NODE OUTPUT, NSET = I_SAMPLE.SURFACE
COOR1, COOR2, COOR3
*END STEP
**------------------------------------------------------------------------------
** STEP: LOADING2
**------------------------------------------------------------------------------
*STEP, NAME = LOADING2, NLGEOM = YES, INC=1000000
*STATIC
0.02, 1.0, 1e-08, 0.02
*BOUNDARY, OP=NEW
I_SAMPLE.AXIS, 1, 1
I_SAMPLE.BOTTOM, 1, 3
I_INDENTER.AXIS, 1, 1
I_INDENTER.REF_NODE, 4, 6 
I_INDENTER.REF_NODE, 2, 2, -0.2
*RESTART, WRITE, FREQUENCY = 0
*OUTPUT, FIELD, FREQUENCY = 999999
*NODE OUTPUT
COORD, U, 
*NODE OUTPUT, NSET=I_INDENTER.REF_NODE
U
*ELEMENT OUTPUT, ELSET=I_SAMPLE.ALL_ELEMENTS, DIRECTIONS = YES
LE, EE, PE, PEEQ, S, 
*ELEMENT OUTPUT, ELSET=I_INDENTER.ALL_ELEMENTS, DIRECTIONS = YES
LE, EE, PE, PEEQ, S, 
*OUTPUT, HISTORY
*ENERGY OUTPUT
ALLFD, ALLWK
*ENERGY OUTPUT, ELSET=I_SAMPLE.ALL_ELEMENTS
ALLPD, ALLSE
*ENERGY OUTPUT, ELSET=I_INDENTER.ALL_ELEMENTS
ALLPD, ALLSE
*CONTACT OUTPUT, NSET=I_SAMPLE.SURFACE
CPRESS
*NODE OUTPUT, NSET=I_INDENTER.REF_NODE
U2, RF2, CF2
*NODE OUTPUT, NSET=I_INDENTER.TIP_NODE
U2
*NODE OUTPUT, NSET = I_SAMPLE.SURFACE
COOR1, COOR2, COOR3
*END STEP
**------------------------------------------------------------------------------
** STEP: UNLOADING2
**------------------------------------------------------------------------------
*STEP, NAME = UNLOADING2, NLGEOM = YES, INC=1000000
*STATIC
0.02, 1.0, 1e-08, 0.02
*BOUNDARY, OP=NEW
I_SAMPLE.AXIS, 1, 1
I_SAMPLE.BOTTOM, 1, 3
I_INDENTER.AXIS, 1, 1
I_INDENTER.REF_NODE, 4, 6 
*CLOAD
I_INDENTER.REF_NODE, 2, 0.0
*RESTART, WRITE, FREQUENCY = 0
*OUTPUT, FIELD, FREQUENCY = 999999
*NODE OUTPUT
COORD, U, 
*NODE OUTPUT, NSET=I_INDENTER.REF_NODE
U
*ELEMENT OUTPUT, ELSET=I_SAMPLE.ALL_ELEMENTS, DIRECTIONS = YES
LE, EE, PE, PEEQ, S, 
*ELEMENT OUTPUT, ELSET=I_INDENTER.ALL_ELEMENTS, DIRECTIONS = YES
LE, EE, PE, PEEQ, S, 
*OUTPUT, HISTORY
*ENERGY OUTPUT
ALLFD, ALLWK
*ENERGY OUTPUT, ELSET=I_SAMPLE.ALL_ELEMENTS
ALLPD, ALLSE
*ENERGY OUTPUT, ELSET=I_INDENTER.ALL_ELEMENTS
ALLPD, ALLSE
*CONTACT OUTPUT, NSET=I_SAMPLE.SURFACE
CPRESS
*NODE OUTPUT, NSET=I_INDENTER.REF_NODE
U2, RF2, CF2
*NODE OUTPUT, NSET=I_INDENTER.TIP_NODE
U2
*NODE OUTPUT, NSET = I_SAMPLE.SURFACE
COOR1, COOR2, COOR3
*END STEP

