**----------------------------------
**INDENTATION SIMULATION
**----------------------------------
*HEADING
Abapy Indentation Simulation
*PREPRINT, ECHO=NO, MODEL=NO, HISTORY=NO, CONTACT=NO
**----------------------------------
** SAMPLE DEFINITION
*PART, NAME = P_SAMPLE
**------------------------------------------------------------------------------
** NODES
**------------------------------------------------------------------------------
*NODE, NSET=ALLNODES
1, 0.0, 0.0, 0.0
2, 0.0, -1.0, 0.0
3, 1.0, -1.0, 0.0
4, 1.0, 0.0, 0.0
5, 0.0, -2.0, 0.0
6, 2.0, 0.0, 0.0
7, 0.0, -1000.0, 0.0
8, 1000.0, 0.0, 0.0
9, 0.0, -0.0666666666665, 0.0
10, 0.0, -0.133333333333, 0.0
11, 0.0, -0.2, 0.0
12, 0.0, -0.266666666666, 0.0
13, 0.0, -0.333333333333, 0.0
14, 0.0, -0.399999999999, 0.0
15, 0.0, -0.466666666665, 0.0
16, 0.0, -0.533333333332, 0.0
17, 0.0, -0.599999999999, 0.0
18, 0.0, -0.666666666666, 0.0
19, 0.0, -0.733333333333, 0.0
20, 0.0, -0.799999999999, 0.0
** ... 1748 like lines cut
**------------------------------------------------------------------------------
** NODE SETS
**------------------------------------------------------------------------------
*NSET, NSET=AXIS
1,2,5,7,9,10,11,12,13,14,15,16,17,18,19,
20,21,22,97,98,99,100,101,102,103,104,105,106,107,108,109,
110,111,166,167,168,169,170,171,172,173,174,175,176,177,178,179,
180,181,182,183,184,185,186,187,188,189,190,191,192,193,194,195,
196,197,198,199,200,201,202,203,204,
*NSET, NSET=SURFACE
1,4,6,67,68,69,70,71,72,73,74,75,76,77,78,
79,80,81,82,83,84,85,86,87,88,89,90,91,92,93,94,
95,96,151,152,153,154,155,156,157,158,159,160,161,162,163,164,
165,
*NSET, NSET=BOTTOM
7,8,205,206,207,208,209,210,211
**------------------------------------------------------------------------------
** ELEMENTS
**------------------------------------------------------------------------------
*ELEMENT, TYPE=CAX4, ELSET=CAX4_ELEMENTS
127, 1, 9, 251, 96,
128, 96, 251, 252, 95,
129, 95, 252, 253, 94,
130, 94, 253, 254, 93,
131, 93, 254, 255, 92,
132, 92, 255, 256, 91,
133, 91, 256, 257, 90,
134, 90, 257, 258, 89,
135, 89, 258, 259, 88,
136, 88, 259, 260, 87,
137, 87, 260, 261, 86,
138, 86, 261, 262, 85,
139, 85, 262, 263, 84,
140, 84, 263, 264, 83,
141, 83, 264, 265, 82,
142, 82, 265, 266, 81,
143, 81, 266, 267, 80,
144, 80, 267, 268, 79,
145, 79, 268, 269, 78,
146, 78, 269, 270, 77,
** ... 1664 like lines cut
**------------------------------------------------------------------------------
** ELEMENT SETS
**------------------------------------------------------------------------------
*ELSET, ELSET=CORE
127,128,129,130,131,132,133,134,135,136,137,138,139,140,141,
142,143,144,145,146,147,148,149,150,151,152,153,154,155,156,157,
158,159,160,161,162,163,164,165,166,167,168,169,170,171,172,173,
174,175,176,177,178,179,180,181,182,183,184,185,186,187,188,189,
190,191,192,193,194,195,196,197,198,199,200,201,202,203,204,205,
206,207,208,209,210,211,212,213,214,215,216,217,218,219,220,221,
222,223,224,225,226,227,228,229,230,231,232,233,234,235,236,237,
238,239,240,241,242,243,244,245,246,247,248,249,250,251,252,253,
254,255,256,257,258,259,260,261,262,263,264,265,266,267,268,269,
270,271,272,273,274,275,276,277,278,279,280,281,282,283,284,285,
286,287,288,289,290,291,292,293,294,295,296,297,298,299,300,301,
302,303,304,305,306,307,308,309,310,311,312,313,314,315,316,317,
318,319,320,321,322,323,324,325,326,327,328,329,330,331,332,333,
334,335,336,337,338,339,340,341,342,343,344,345,346,347,348,349,
350,351,352,353,354,355,356,357,358,359,360,361,362,363,364,365,
366,367,368,369,370,371,372,373,374,375,376,377,378,379,380,381,
382,383,384,385,386,387,388,389,390,391,392,393,394,395,396,397,
398,399,400,401,402,403,404,405,406,407,408,409,410,411,412,413,
414,415,416,417,418,419,420,421,422,423,424,425,426,427,428,429,
430,431,432,433,434,435,436,437,438,439,440,441,442,443,444,445,
** ... 10 like lines cut
*ELSET, ELSET=SHELL1
592,593,594,595,596,597,598,599,600,601,602,603,604,605,606,
607,608,609,610,611,612,613,614,615,616,617,618,619,620,621,622,
623,624,625,626,627,628,629,630,631,632,633,634,635,636,637,638,
639,640,641,642,643,644,645,646,647,648,649,650,651,652,653,654,
655,656,657,658,659,660,661,662,663,664,665,666,667,668,669,670,
671,672,673,674,675,676,677,678,679,680,681,682,683,684,685,686,
687,688,689,690,691,692,693,694,695,696,697,698,699,700,701,702,
703,704,705,706,707,708,709,710,711,712,713,714,715,716,717,718,
719,720,721,722,723,724,725,726,727,728,729,730,731,732,733,734,
735,736,737,738,739,740,741,742,743,744,745,746,747,748,749,750,
751,752,753,754,755,756,757,758,759,760,761,762,763,764,765,766,
767,768,769,770,771,772,773,774,775,776,777,778,779,780,781,782,
783,784,785,786,787,788,789,790,791,792,793,794,795,796,797,798,
799,800,801,802,803,804,805,806,807,808,809,810,811,812,813,814,
815,816,817,818,819,820,821,822,823,824,825,826,827,828,829,830,
831,832,833,834,835,836,837,838,839,840,841,842,843,844,845,846,
847,848,849,850,851,852,853,854,855,856,857,858,859,860,861,862,
863,864,865,866,867,868,869,870,871,872,873,874,875,876,877,878,
879,880,881,882,883,884,885,886,887,888,889,890,891,892,893,894,
895,896,897,898,899,900,901,902,903,904,905,906,907,908,909,910,
** ... 28 like lines cut
*ELSET, ELSET=SHELL2
1336,1337,1338,1339,1340,1341,1342,1343,1344,1345,1346,1347,1348,1349,1350,
1351,1352,1353,1354,1355,1356,1357,1358,1359,1360,1361,1362,1363,1364,1365,
1366,1367,1368,1369,1370,1371,1372,1373,1374,1375,1376,1377,1378,1379,1380,
1381,1382,1383,1384,1385,1386,1387,1388,1389,1390,1391,1392,1393,1394,1395,
1396,1397,1398,1399,1400,1401,1402,1403,1404,1405,1406,1407,1408,1409,1410,
1411,1412,1413,1414,1415,1416,1417,1418,1419,1420,1421,1422,1423,1424,1425,
1426,1427,1428,1429,1430,1431,1432,1433,1434,1435,1436,1437,1438,1439,1440,
1441,1442,1443,1444,1445,1446,1447,1448,1449,1450,1451,1452,1453,1454,1455,
1456,1457,1458,1459,1460,1461,1462,1463,1464,1465,1466,1467,1468,1469,1470,
1471,1472,1473,1474,1475,1476,1477,1478,1479,1480,1481,1482,1483,1484,1485,
1486,1487,1488,1489,1490,1491,1492,1493,1494,1495,1496,1497,1498,1499,1500,
1501,1502,1503,1504,1505,1506,1507,1508,1509,1510,1511,1512,1513,1514,1515,
1516,1517,1518,1519,1520,1521,1522,1523,1524,1525,1526,1527,1528,1529,1530,
1531,1532,1533,1534,1535,1536,1537,1538,1539,1540,1541,1542,1543,1544,1545,
1546,1547,1548,1549,1550,1551,1552,1553,1554,1555,1556,1557,1558,1559,1560,
1561,1562,1563,1564,1565,1566,1567,1568,1569,1570,1571,1572,1573,1574,1575,
1576,1577,1578,1579,1580,1581,1582,1583,1584,1585,1586,1587,1588,1589,1590,
1591,1592,1593,1594,1595,1596,1597,1598,1599,1600,1601,1602,1603,1604,1605,
1606,1607,1608,1609,1610,1611,1612,1613,1614,1615,1616,1617,1618,1619,1620,
1621,1622,1623,1624,1625,1626,1627,1628,1629,1630,1631,1632,1633,1634,1635,
** ... 12 like lines cut
*ELSET, ELSET=ALL_ELEMENTS
127,128,129,130,131,132,133,134,135,136,137,138,139,140,141,
142,143,144,145,146,147,148,149,150,151,152,153,154,155,156,157,
158,159,160,161,162,163,164,165,166,167,168,169,170,171,172,173,
174,175,176,177,178,179,180,181,182,183,184,185,186,187,188,189,
190,191,192,193,194,195,196,197,198,199,200,201,202,203,204,205,
206,207,208,209,210,211,212,213,214,215,216,217,218,219,220,221,
222,223,224,225,226,227,228,229,230,231,232,233,234,235,236,237,
238,239,240,241,242,243,244,245,246,247,248,249,250,251,252,253,
254,255,256,257,258,259,260,261,262,263,264,265,266,267,268,269,
270,271,272,273,274,275,276,277,278,279,280,281,282,283,284,285,
286,287,288,289,290,291,292,293,294,295,296,297,298,299,300,301,
302,303,304,305,306,307,308,309,310,311,312,313,314,315,316,317,
318,319,320,321,322,323,324,325,326,327,328,329,330,331,332,333,
334,335,336,337,338,339,340,341,342,343,344,345,346,347,348,349,
350,351,352,353,354,355,356,357,358,359,360,361,362,363,364,365,
366,367,368,369,370,371,372,373,374,375,376,377,378,379,380,381,
382,383,384,385,386,387,388,389,390,391,392,393,394,395,396,397,
398,399,400,401,402,403,404,405,406,407,408,409,410,411,412,413,
414,415,416,417,418,419,420,421,422,423,424,425,426,427,428,429,
430,431,432,433,434,435,436,437,438,439,440,441,442,443,444,445,
** ... 89 like lines cut
*ELSET, ELSET=_SURF_SURFACE_FACE1
688,766,1241,1242,1287,1310,
*ELSET, ELSET=_SURF_SURFACE_FACE2
816,887,
*ELSET, ELSET=_SURF_SURFACE_FACE3
719,1134,
*ELSET, ELSET=_SURF_SURFACE_FACE4
127,128,129,130,131,132,133,134,135,136,137,138,139,140,141,
142,143,144,145,146,147,148,149,150,151,152,153,154,155,156,157,
612,701,805,1046,1095,1164
**------------------------------------------------------------------------------
** SURFACES
**------------------------------------------------------------------------------
*SURFACE, TYPE=ELEMENT, NAME=SURFACE
  _SURF_SURFACE_FACE4, S4
  _SURF_SURFACE_FACE1, S1
  _SURF_SURFACE_FACE3, S3
  _SURF_SURFACE_FACE2, S2
*SOLID SECTION, ELSET = ALL_ELEMENTS, MATERIAL = SAMPLE_MAT
*END PART
**----------------------------------
** INDENTER DEFINITION
**----------------------------------
*PART, NAME = P_INDENTER
**------------------------------------------------------------------------------
** NODES
**------------------------------------------------------------------------------
*NODE, NSET=ALLNODES
1, 0.0, 0.0, 0.0
2, 94.1411696251, 33.7259570896, 0.0
3, 0.0, 100.0, 0.0
4, 0.0752018422923, 0.0269409665963, 0.0
5, 0.150403684585, 0.0538819331926, 0.0
6, 0.225605526877, 0.0808228997889, 0.0
7, 0.300807369169, 0.107763866385, 0.0
8, 0.376009211461, 0.134704832982, 0.0
9, 0.451211053754, 0.161645799578, 0.0
10, 0.526412896046, 0.188586766174, 0.0
11, 0.601614738338, 0.21552773277, 0.0
12, 0.67681658063, 0.242468699367, 0.0
13, 0.752018422923, 0.269409665963, 0.0
14, 0.827220265215, 0.296350632559, 0.0
15, 0.902422107507, 0.323291599156, 0.0
16, 0.979433566423, 0.35088085866, 0.0
17, 1.07118309159, 0.383750012091, 0.0
18, 1.18334884127, 0.423933252599, 0.0
19, 1.32047383253, 0.473058110403, 0.0
20, 1.48811206963, 0.533114300627, 0.0
** ... 429 like lines cut
**------------------------------------------------------------------------------
** NODE SETS
**------------------------------------------------------------------------------
*NSET, NSET=BOTTOM
2,3,43,44,45,46,47,48,49,
*NSET, NSET=REF_NODE
3,
*NSET, NSET=SURFACE
1,2,4,5,6,7,8,9,10,11,12,13,14,15,16,
17,18,19,20,21,22,23,24,25,26,27,28,29,30,31,32,
33,34,35,36,37,38,39,40,41,42,
*NSET, NSET=RIGID_NODES
2,3,43,44,45,46,47,48,49,
*NSET, NSET=TIP_NODE
1,
*NSET, NSET=AXIS
1,3,50,51,52,53,54,55,56,57,58,59,60,61,62,
63,64,65,66,67,68,69,70,71,72,73,74,75,76,77,78,
79,80,81,82,83,84,85,86,87,88
**------------------------------------------------------------------------------
** ELEMENTS
**------------------------------------------------------------------------------
*ELEMENT, TYPE=CAX4, ELSET=CAX4_ELEMENTS
89, 409, 372, 186, 259,
90, 197, 412, 196, 125,
91, 196, 110, 226, 228,
92, 199, 124, 369, 318,
93, 126, 268, 201, 351,
94, 369, 237, 185, 318,
95, 152, 300, 202, 362,
96, 229, 235, 192, 141,
97, 266, 191, 211, 105,
98, 28, 209, 271, 27,
99, 392, 215, 122, 305,
100, 131, 373, 183, 360,
101, 71, 72, 341, 177,
102, 21, 178, 340, 20,
103, 198, 37, 38, 281,
104, 59, 60, 211, 191,
105, 64, 65, 260, 189,
106, 350, 399, 48, 49,
107, 300, 173, 282, 104,
108, 111, 308, 249, 203,
** ... 384 like lines cut
**------------------------------------------------------------------------------
** ELEMENT SETS
**------------------------------------------------------------------------------
*ELSET, ELSET=_SURF_SURFACE_FACE3
196,217,218,230,315,341,367,
*ELSET, ELSET=_SURF_SURFACE_FACE1
165,186,207,225,293,396,430,431,
*ELSET, ELSET=_SURF_SURFACE_FACE2
103,119,139,234,244,268,289,297,318,329,332,342,
*ELSET, ELSET=ALL_ELEMENTS
89,90,91,92,93,94,95,96,97,98,99,100,101,102,103,
104,105,106,107,108,109,110,111,112,113,114,115,116,117,118,119,
120,121,122,123,124,125,126,127,128,129,130,131,132,133,134,135,
136,137,138,139,140,141,142,143,144,145,146,147,148,149,150,151,
152,153,154,155,156,157,158,159,160,161,162,163,164,165,166,167,
168,169,170,171,172,173,174,175,176,177,178,179,180,181,182,183,
184,185,186,187,188,189,190,191,192,193,194,195,196,197,198,199,
200,201,202,203,204,205,206,207,208,209,210,211,212,213,214,215,
216,217,218,219,220,221,222,223,224,225,226,227,228,229,230,231,
232,233,234,235,236,237,238,239,240,241,242,243,244,245,246,247,
248,249,250,251,252,253,254,255,256,257,258,259,260,261,262,263,
264,265,266,267,268,269,270,271,272,273,274,275,276,277,278,279,
280,281,282,283,284,285,286,287,288,289,290,291,292,293,294,295,
296,297,298,299,300,301,302,303,304,305,306,307,308,309,310,311,
312,313,314,315,316,317,318,319,320,321,322,323,324,325,326,327,
328,329,330,331,332,333,334,335,336,337,338,339,340,341,342,343,
344,345,346,347,348,349,350,351,352,353,354,355,356,357,358,359,
360,361,362,363,364,365,366,367,368,369,370,371,372,373,374,375,
376,377,378,379,380,381,382,383,384,385,386,387,388,389,390,391,
392,393,394,395,396,397,398,399,400,401,402,403,404,405,406,407,
** ... 6 like lines cut
*ELSET, ELSET=_SURF_SURFACE_FACE4
98,102,163,175,253,260,272,292,309,349,406,414,487
**------------------------------------------------------------------------------
** SURFACES
**------------------------------------------------------------------------------
*SURFACE, TYPE=ELEMENT, NAME=SURFACE
  _SURF_SURFACE_FACE4, S4
  _SURF_SURFACE_FACE2, S2
  _SURF_SURFACE_FACE1, S1
  _SURF_SURFACE_FACE3, S3
*SOLID SECTION, ELSET = ALL_ELEMENTS, MATERIAL = INDENTER_MAT
*RIGID BODY, REF NODE = REF_NODE, PIN NSET=RIGID_NODES
*END PART
**----------------------------------
** ASSEMBLY
**----------------------------------
*ASSEMBLY, NAME = ASSEMBLY
*INSTANCE, NAME = I_SAMPLE, PART = P_SAMPLE
*END INSTANCE
*INSTANCE, NAME = I_INDENTER, PART= P_INDENTER
*END INSTANCE
*END ASSEMBLY
**----------------------------------
** SURFACE INTERACTIONS
**----------------------------------
*SURFACE INTERACTION, NAME = SURF_INT
*FRICTION
0.0,
*SURFACE BEHAVIOR, PRESSURE-OVERCLOSURE = HARD
*CONTACT PAIR, INTERACTION = SURF_INT, SUPPLEMENTARY CONSTRAINTS = NO, TYPE= NODE TO SURFACE
I_SAMPLE.SURFACE, I_INDENTER.SURFACE
**----------------------------------
** MATERIALS
**----------------------------------
** SAMPLE MATERIAL
** <VonMises instance: 1 samples>
*MATERIAL, NAME=SAMPLE_MAT
*ELASTIC
  1.0, 0.3
*PLASTIC
  0.01, 0.
** INDENTER MATERIAL
** <Elastic instance: 1 samples>
*MATERIAL, NAME=INDENTER_MAT
*ELASTIC
  1.0, 0.3
**----------------------------------
** STEPS
**----------------------------------
*STEP, NAME = LOADING1, NLGEOM = YES, INC=1000000
*STATIC, DIRECT
0.02, 1.
*BOUNDARY
I_SAMPLE.AXIS, 1, 1
I_SAMPLE.BOTTOM, 1, 3
I_INDENTER.AXIS, 1, 1
I_INDENTER.REF_NODE, 4, 6 
I_INDENTER.REF_NODE, 2, 2, -0.166758329628
*RESTART, WRITE, FREQUENCY = 0
*OUTPUT, FIELD, FREQUENCY = 999999
*NODE OUTPUT
COORD, U, 
*NODE OUTPUT, NSET=I_INDENTER.REF_NODE
U
*ELEMENT OUTPUT, ELSET=I_SAMPLE.ALL_ELEMENTS, DIRECTIONS = YES
LE, EE, PE, PEEQ, S, 
*ELEMENT OUTPUT, ELSET=I_INDENTER.ALL_ELEMENTS, DIRECTIONS = YES
LE, EE, PE, PEEQ, S, 
*OUTPUT, HISTORY
*ENERGY OUTPUT
ALLFD, ALLWK
*ENERGY OUTPUT, ELSET=I_SAMPLE.ALL_ELEMENTS
ALLPD
*ENERGY OUTPUT, ELSET=I_SAMPLE.ALL_ELEMENTS
ALLSE
*ENERGY OUTPUT, ELSET=I_INDENTER.ALL_ELEMENTS
ALLSE
*CONTACT OUTPUT, NSET=I_SAMPLE.SURFACE
CPRESS
*NODE OUTPUT, NSET=I_INDENTER.REF_NODE
U2
*NODE OUTPUT, NSET=I_INDENTER.TIP_NODE
U2
*NODE OUTPUT, NSET=I_INDENTER.REF_NODE
RF2
*NODE OUTPUT, NSET = I_SAMPLE.SURFACE
COOR1, COOR2, COOR3
*END STEP
*STEP, NAME = LOADING2, NLGEOM = YES, INC=1000000
*STATIC, DIRECT
0.02, 1.
*BOUNDARY
I_SAMPLE.AXIS, 1, 1
I_SAMPLE.BOTTOM, 1, 3
I_INDENTER.AXIS, 1, 1
I_INDENTER.REF_NODE, 4, 6 
I_INDENTER.REF_NODE, 2, 2, 0.
*RESTART, WRITE, FREQUENCY = 0
*OUTPUT, FIELD, FREQUENCY = 999999
*NODE OUTPUT
COORD, U, 
*NODE OUTPUT, NSET=I_INDENTER.REF_NODE
U
*ELEMENT OUTPUT, ELSET=I_SAMPLE.ALL_ELEMENTS, DIRECTIONS = YES
LE, EE, PE, PEEQ, S, 
*ELEMENT OUTPUT, ELSET=I_INDENTER.ALL_ELEMENTS, DIRECTIONS = YES
LE, EE, PE, PEEQ, S, 
*OUTPUT, HISTORY
*ENERGY OUTPUT
ALLFD, ALLWK
*ENERGY OUTPUT, ELSET=I_SAMPLE.ALL_ELEMENTS
ALLPD
*ENERGY OUTPUT, ELSET=I_SAMPLE.ALL_ELEMENTS
ALLSE
*ENERGY OUTPUT, ELSET=I_INDENTER.ALL_ELEMENTS
ALLSE
*CONTACT OUTPUT, NSET=I_SAMPLE.SURFACE
CPRESS
*NODE OUTPUT, NSET=I_INDENTER.REF_NODE
U2
*NODE OUTPUT, NSET=I_INDENTER.TIP_NODE
U2
*NODE OUTPUT, NSET=I_INDENTER.REF_NODE
RF2
*NODE OUTPUT, NSET = I_SAMPLE.SURFACE
COOR1, COOR2, COOR3
*END STEP
