**------------------------------------------------------------------------------
**INDENTATION SIMULATION
**------------------------------------------------------------------------------
*HEADING
Abapy Indentation Simulation
*PREPRINT, ECHO=NO, MODEL=NO, HISTORY=NO, CONTACT=NO
**------------------------------------------------------------------------------
** SAMPLE DEFINITION
**------------------------------------------------------------------------------
*PART, NAME = P_SAMPLE
**------------------------------------------------------------------------------
** NODES
**------------------------------------------------------------------------------
*NODE, NSET=ALLNODES
1, 0.0, 0.0, 0.0
2, 0.0, -1.0, 0.0
3, 1.0, -1.0, 0.0
4, 1.0, 0.0, 0.0
5, 0.0, -2.0, 0.0
6, 2.0, 0.0, 0.0
7, 0.0, -100.0, 0.0
8, 100.0, 0.0, 0.0
9, 0.0, -0.0666666666665325, 0.0
10, 0.0, -0.1333333333330848, 0.0
11, 0.0, -0.1999999999995569, 0.0
12, 0.0, -0.266666666666029, 0.0
13, 0.0, -0.3333333333325011, 0.0
14, 0.0, -0.3999999999989731, 0.0
15, 0.0, -0.4666666666654452, 0.0
16, 0.0, -0.5333333333321025, 0.0
17, 0.0, -0.5999999999989449, 0.0
18, 0.0, -0.6666666666657876, 0.0
19, 0.0, -0.73333333333263, 0.0
20, 0.0, -0.7999999999994725, 0.0
** ... 1039 like lines cut
**------------------------------------------------------------------------------
** NODE SETS
**------------------------------------------------------------------------------
*NSET, NSET=BOTTOM
7,8,153,154,155,156,157,158,159,
*NSET, NSET=AXIS
1,2,5,7,9,10,11,12,13,14,15,16,17,18,19,
20,21,22,97,98,99,100,101,102,103,104,105,130,131,132,133,
134,135,136,137,138,139,140,141,142,143,144,145,146,147,148,149,
150,151,152,
*NSET, NSET=SURFACE
1,4,6,67,68,69,70,71,72,73,74,75,76,77,78,
79,80,81,82,83,84,85,86,87,88,89,90,91,92,93,94,
95,96,121,122,123,124,125,126,127,128,129
**------------------------------------------------------------------------------
** ELEMENTS
**------------------------------------------------------------------------------
*ELEMENT, TYPE=CAX4, ELSET=CAX4_ELEMENTS
99, 1, 9, 183, 96,
100, 96, 183, 184, 95,
101, 95, 184, 185, 94,
102, 94, 185, 186, 93,
103, 93, 186, 187, 92,
104, 92, 187, 188, 91,
105, 91, 188, 189, 90,
106, 90, 189, 190, 89,
107, 89, 190, 191, 88,
108, 88, 191, 192, 87,
109, 87, 192, 193, 86,
110, 86, 193, 194, 85,
111, 85, 194, 195, 84,
112, 84, 195, 196, 83,
113, 83, 196, 197, 82,
114, 82, 197, 198, 81,
115, 81, 198, 199, 80,
116, 80, 199, 200, 79,
117, 79, 200, 201, 78,
118, 78, 201, 202, 77,
** ... 977 like lines cut
**------------------------------------------------------------------------------
** ELEMENT SETS
**------------------------------------------------------------------------------
*ELSET, ELSET=_SURF_SURFACE_FACE1
663,726,830,
*ELSET, ELSET=_SURF_SURFACE_FACE4
99,100,101,102,103,104,105,106,107,108,109,110,111,112,113,
114,115,116,117,118,119,120,121,122,123,124,125,126,127,128,129,
568,687,694,
*ELSET, ELSET=SHELL2
861,862,863,864,865,866,867,868,869,870,871,872,873,874,875,
876,877,878,879,880,881,882,883,884,885,886,887,888,889,890,891,
892,893,894,895,896,897,898,899,900,901,902,903,904,905,906,907,
908,909,910,911,912,913,914,915,916,917,918,919,920,921,922,923,
924,925,926,927,928,929,930,931,932,933,934,935,936,937,938,939,
940,941,942,943,944,945,946,947,948,949,950,951,952,953,954,955,
956,957,958,959,960,961,962,963,964,965,966,967,968,969,970,971,
972,973,974,975,976,977,978,979,980,981,982,983,984,985,986,987,
988,989,990,991,992,993,994,995,996,997,998,999,1000,1001,1002,1003,
1004,1005,1006,1007,1008,1009,1010,1011,1012,1013,1014,1015,1016,1017,1018,
1019,1020,1021,1022,1023,1024,1025,1026,1027,1028,1029,1030,1031,1032,1033,
1034,1035,1036,1037,1038,1039,1040,1041,1042,1043,1044,1045,1046,1047,1048,
1049,1050,1051,1052,1053,1054,1055,1056,1057,1058,1059,1060,1061,1062,1063,
1064,1065,1066,1067,1068,1069,1070,1071,1072,1073,1074,1075,1076,1077,1078,
1079,1080,1081,1082,1083,1084,1085,1086,1087,1088,1089,1090,1091,1092,1093,
1094,1095,
*ELSET, ELSET=ALL_ELEMENTS
99,100,101,102,103,104,105,106,107,108,109,110,111,112,113,
114,115,116,117,118,119,120,121,122,123,124,125,126,127,128,129,
130,131,132,133,134,135,136,137,138,139,140,141,142,143,144,145,
146,147,148,149,150,151,152,153,154,155,156,157,158,159,160,161,
162,163,164,165,166,167,168,169,170,171,172,173,174,175,176,177,
178,179,180,181,182,183,184,185,186,187,188,189,190,191,192,193,
194,195,196,197,198,199,200,201,202,203,204,205,206,207,208,209,
210,211,212,213,214,215,216,217,218,219,220,221,222,223,224,225,
226,227,228,229,230,231,232,233,234,235,236,237,238,239,240,241,
242,243,244,245,246,247,248,249,250,251,252,253,254,255,256,257,
258,259,260,261,262,263,264,265,266,267,268,269,270,271,272,273,
274,275,276,277,278,279,280,281,282,283,284,285,286,287,288,289,
290,291,292,293,294,295,296,297,298,299,300,301,302,303,304,305,
306,307,308,309,310,311,312,313,314,315,316,317,318,319,320,321,
322,323,324,325,326,327,328,329,330,331,332,333,334,335,336,337,
338,339,340,341,342,343,344,345,346,347,348,349,350,351,352,353,
354,355,356,357,358,359,360,361,362,363,364,365,366,367,368,369,
370,371,372,373,374,375,376,377,378,379,380,381,382,383,384,385,
386,387,388,389,390,391,392,393,394,395,396,397,398,399,400,401,
402,403,404,405,406,407,408,409,410,411,412,413,414,415,416,417,
** ... 43 like lines cut
*ELSET, ELSET=CORE
99,100,101,102,103,104,105,106,107,108,109,110,111,112,113,
114,115,116,117,118,119,120,121,122,123,124,125,126,127,128,129,
130,131,132,133,134,135,136,137,138,139,140,141,142,143,144,145,
146,147,148,149,150,151,152,153,154,155,156,157,158,159,160,161,
162,163,164,165,166,167,168,169,170,171,172,173,174,175,176,177,
178,179,180,181,182,183,184,185,186,187,188,189,190,191,192,193,
194,195,196,197,198,199,200,201,202,203,204,205,206,207,208,209,
210,211,212,213,214,215,216,217,218,219,220,221,222,223,224,225,
226,227,228,229,230,231,232,233,234,235,236,237,238,239,240,241,
242,243,244,245,246,247,248,249,250,251,252,253,254,255,256,257,
258,259,260,261,262,263,264,265,266,267,268,269,270,271,272,273,
274,275,276,277,278,279,280,281,282,283,284,285,286,287,288,289,
290,291,292,293,294,295,296,297,298,299,300,301,302,303,304,305,
306,307,308,309,310,311,312,313,314,315,316,317,318,319,320,321,
322,323,324,325,326,327,328,329,330,331,332,333,334,335,336,337,
338,339,340,341,342,343,344,345,346,347,348,349,350,351,352,353,
354,355,356,357,358,359,360,361,362,363,364,365,366,367,368,369,
370,371,372,373,374,375,376,377,378,379,380,381,382,383,384,385,
386,387,388,389,390,391,392,393,394,395,396,397,398,399,400,401,
402,403,404,405,406,407,408,409,410,411,412,413,414,415,416,417,
** ... 10 like lines cut
*ELSET, ELSET=_SURF_SURFACE_FACE3
596,608,625,
*ELSET, ELSET=SHELL1
564,565,566,567,568,569,570,571,572,573,574,575,576,577,578,
579,580,581,582,583,584,585,586,587,588,589,590,591,592,593,594,
595,596,597,598,599,600,601,602,603,604,605,606,607,608,609,610,
611,612,613,614,615,616,617,618,619,620,621,622,623,624,625,626,
627,628,629,630,631,632,633,634,635,636,637,638,639,640,641,642,
643,644,645,646,647,648,649,650,651,652,653,654,655,656,657,658,
659,660,661,662,663,664,665,666,667,668,669,670,671,672,673,674,
675,676,677,678,679,680,681,682,683,684,685,686,687,688,689,690,
691,692,693,694,695,696,697,698,699,700,701,702,703,704,705,706,
707,708,709,710,711,712,713,714,715,716,717,718,719,720,721,722,
723,724,725,726,727,728,729,730,731,732,733,734,735,736,737,738,
739,740,741,742,743,744,745,746,747,748,749,750,751,752,753,754,
755,756,757,758,759,760,761,762,763,764,765,766,767,768,769,770,
771,772,773,774,775,776,777,778,779,780,781,782,783,784,785,786,
787,788,789,790,791,792,793,794,795,796,797,798,799,800,801,802,
803,804,805,806,807,808,809,810,811,812,813,814,815,816,817,818,
819,820,821,822,823,824,825,826,827,828,829,830,831,832,833,834,
835,836,837,838,839,840,841,842,843,844,845,846,847,848,849,850,
851,852,853,854,855,856,857,858,859,860,
*ELSET, ELSET=_SURF_SURFACE_FACE2
699
**------------------------------------------------------------------------------
** SURFACES
**------------------------------------------------------------------------------
*SURFACE, TYPE=ELEMENT, NAME=SURFACE
  _SURF_SURFACE_FACE4, S4
  _SURF_SURFACE_FACE3, S3
  _SURF_SURFACE_FACE1, S1
  _SURF_SURFACE_FACE2, S2
*SOLID SECTION, ELSET = ALL_ELEMENTS, MATERIAL = SAMPLE_MAT
*END PART
**------------------------------------------------------------------------------
** INDENTER DEFINITION
**------------------------------------------------------------------------------
*PART, NAME = P_INDENTER
**------------------------------------------------------------------------------
** NODES
**------------------------------------------------------------------------------
*NODE, NSET=ALLNODES
1, 0.0, 0.0, 0.0
2, 0.866025403784, 0.5, 0.0
3, 50.0, 85.60254037839998, 0.0
4, 0.0, 99.0, 0.0
5, 0.08715574274744063, 0.0038053019082354704, 0.0
6, 0.17364817766651802, 0.01519224698771926, 0.0
7, 0.2588190451018715, 0.034074173710757716, 0.0
8, 0.3420201433247647, 0.06030737921376261, 0.0
9, 0.4226182617395782, 0.09369221296282716, 0.0
10, 0.4999999999988046, 0.1339745962148712, 0.0
11, 0.5735764363501329, 0.1808479557103688, 0.0
12, 0.6427876096857565, 0.2339555568803652, 0.0
13, 0.7071067811860066, 0.2928932188129115, 0.0
14, 0.7660444431185858, 0.3572123903129931, 0.0
15, 0.8191520442887742, 0.4264235636486431, 0.0
16, 0.9182578252422268, 0.5904692077679521, 0.0
17, 0.9802562366369286, 0.6978536062920768, 0.0
18, 1.0541391470349448, 0.8258225609124332, 0.0
19, 1.142491725480258, 0.9788537157593504, 0.0
20, 1.248463026952892, 1.162401394054055, 0.0
** ... 217 like lines cut
**------------------------------------------------------------------------------
** NODE SETS
**------------------------------------------------------------------------------
*NSET, NSET=BOTTOM
3,4,43,44,45,
*NSET, NSET=RIGID_NODES
3,4,43,44,45,
*NSET, NSET=REF_NODE
4,
*NSET, NSET=TIP_NODE
1,
*NSET, NSET=AXIS
1,4,46,47,48,49,50,51,52,53,54,55,56,57,58,
59,60,61,62,63,64,65,66,67,68,69,70,71,72,73,74,
75,76,77,78,79,80,81,82,
*NSET, NSET=SURFACE
1,2,3,5,6,7,8,9,10,11,12,13,14,15,16,
17,18,19,20,21,22,23,24,25,26,27,28,29,30,31,32,
33,34,35,36,37,38,39,40,41,42
**------------------------------------------------------------------------------
** ELEMENTS
**------------------------------------------------------------------------------
*ELEMENT, TYPE=CAX3, ELSET=CAX3_ELEMENTS
83, 136, 37, 38,
84, 38, 39, 136,
85, 43, 44, 115,
86, 115, 3, 43,
87, 15, 2, 124,
88, 124, 14, 15
*ELEMENT, TYPE=CAX4, ELSET=CAX4_ELEMENTS
89, 115, 44, 45, 103,
90, 190, 139, 157, 112,
91, 103, 45, 4, 46,
92, 132, 173, 175, 127,
93, 140, 157, 139, 98,
94, 117, 183, 208, 135,
95, 127, 172, 174, 132,
96, 197, 212, 222, 191,
97, 114, 142, 101, 136,
98, 137, 111, 136, 100,
99, 212, 230, 228, 222,
100, 208, 170, 97, 135,
101, 181, 191, 196, 180,
102, 106, 104, 28, 29,
103, 115, 103, 146, 113,
104, 112, 110, 137, 190,
105, 166, 197, 191, 181,
106, 190, 137, 100, 138,
107, 131, 102, 142, 114,
108, 3, 115, 113, 42,
** ... 172 like lines cut
**------------------------------------------------------------------------------
** ELEMENT SETS
**------------------------------------------------------------------------------
*ELSET, ELSET=ALL_ELEMENTS
83,84,85,86,87,88,89,90,91,92,93,94,95,96,97,
98,99,100,101,102,103,104,105,106,107,108,109,110,111,112,113,
114,115,116,117,118,119,120,121,122,123,124,125,126,127,128,129,
130,131,132,133,134,135,136,137,138,139,140,141,142,143,144,145,
146,147,148,149,150,151,152,153,154,155,156,157,158,159,160,161,
162,163,164,165,166,167,168,169,170,171,172,173,174,175,176,177,
178,179,180,181,182,183,184,185,186,187,188,189,190,191,192,193,
194,195,196,197,198,199,200,201,202,203,204,205,206,207,208,209,
210,211,212,213,214,215,216,217,218,219,220,221,222,223,224,225,
226,227,228,229,230,231,232,233,234,235,236,237,238,239,240,241,
242,243,244,245,246,247,248,249,250,251,252,253,254,255,256,257,
258,259,260,261,262,263,264,265,266,267,268,269,270,271,272,273,
274,275,276,277,278,279,280,
*ELSET, ELSET=_SURF_SURFACE_FACE1
84,87,110,111,113,114,146,236,249,254,272,
*ELSET, ELSET=_SURF_SURFACE_FACE3
102,130,131,133,136,137,141,216,227,228,229,
*ELSET, ELSET=_SURF_SURFACE_FACE4
108,151,161,166,175,225,
*ELSET, ELSET=_SURF_SURFACE_FACE2
83,88,134,138,156,157,158,159,160,183,219,222
**------------------------------------------------------------------------------
** SURFACES
**------------------------------------------------------------------------------
*SURFACE, TYPE=ELEMENT, NAME=SURFACE
  _SURF_SURFACE_FACE2, S2
  _SURF_SURFACE_FACE1, S1
  _SURF_SURFACE_FACE3, S3
  _SURF_SURFACE_FACE4, S4
*SOLID SECTION, ELSET = ALL_ELEMENTS, MATERIAL = INDENTER_MAT
*RIGID BODY, REF NODE = REF_NODE, PIN NSET=RIGID_NODES
*END PART
**------------------------------------------------------------------------------
** ASSEMBLY
**------------------------------------------------------------------------------
*ASSEMBLY, NAME = ASSEMBLY
*INSTANCE, NAME = I_SAMPLE, PART = P_SAMPLE
*END INSTANCE
*INSTANCE, NAME = I_INDENTER, PART= P_INDENTER
*END INSTANCE
*END ASSEMBLY
**------------------------------------------------------------------------------
** SURFACE INTERACTIONS
**------------------------------------------------------------------------------
*SURFACE INTERACTION, NAME = SURF_INT
*FRICTION
0.0,
*SURFACE BEHAVIOR, PRESSURE-OVERCLOSURE = HARD
*CONTACT PAIR, INTERACTION = SURF_INT, SUPPLEMENTARY CONSTRAINTS = NO, TYPE= NODE TO SURFACE
I_SAMPLE.SURFACE, I_INDENTER.SURFACE
**------------------------------------------------------------------------------
** MATERIALS
**------------------------------------------------------------------------------
** SAMPLE MATERIAL
** <VonMises instance: 1 samples>
*MATERIAL, NAME=SAMPLE_MAT
*ELASTIC
  1.0, 0.3
*PLASTIC
  0.01, 0.
** INDENTER MATERIAL
** <Elastic instance: 1 samples>
*MATERIAL, NAME=INDENTER_MAT
*ELASTIC
  1.0, 0.3
**------------------------------------------------------------------------------
** STEPS
**------------------------------------------------------------------------------
**------------------------------------------------------------------------------
** STEP: LOADING1
**------------------------------------------------------------------------------
*STEP, NAME = LOADING1, NLGEOM = YES, INC=1000000
*STATIC, DIRECT
0.01, 1.0
*BOUNDARY, OP=NEW
I_SAMPLE.AXIS, 1, 1
I_SAMPLE.BOTTOM, 1, 3
I_INDENTER.AXIS, 1, 1
I_INDENTER.REF_NODE, 4, 6 
I_INDENTER.REF_NODE, 2, 2, -0.1
*RESTART, WRITE, FREQUENCY = 0
*OUTPUT, FIELD, FREQUENCY = 999999
*NODE OUTPUT
COORD, U, 
*NODE OUTPUT, NSET=I_INDENTER.REF_NODE
U
*ELEMENT OUTPUT, ELSET=I_SAMPLE.ALL_ELEMENTS, DIRECTIONS = YES
LE, EE, PE, PEEQ, S, 
*ELEMENT OUTPUT, ELSET=I_INDENTER.ALL_ELEMENTS, DIRECTIONS = YES
LE, EE, PE, PEEQ, S, 
*OUTPUT, HISTORY
*ENERGY OUTPUT
ALLFD, ALLWK
*ENERGY OUTPUT, ELSET=I_SAMPLE.ALL_ELEMENTS
ALLPD, ALLSE
*ENERGY OUTPUT, ELSET=I_INDENTER.ALL_ELEMENTS
ALLPD, ALLSE
*CONTACT OUTPUT, NSET=I_SAMPLE.SURFACE
CPRESS
*NODE OUTPUT, NSET=I_INDENTER.REF_NODE
U2, RF2, CF2
*NODE OUTPUT, NSET=I_INDENTER.TIP_NODE
U2
*NODE OUTPUT, NSET = I_SAMPLE.SURFACE
COOR1, COOR2, COOR3
*END STEP
**------------------------------------------------------------------------------
** STEP: UNLOADING1
**------------------------------------------------------------------------------
*STEP, NAME = UNLOADING1, NLGEOM = YES, INC=1000000
*STATIC, DIRECT
0.01, 1.0
*BOUNDARY, OP=NEW
I_SAMPLE.AXIS, 1, 1
I_SAMPLE.BOTTOM, 1, 3
I_INDENTER.AXIS, 1, 1
I_INDENTER.REF_NODE, 4, 6 
*CLOAD
I_INDENTER.REF_NODE, 2, 0.0
*RESTART, WRITE, FREQUENCY = 0
*OUTPUT, FIELD, FREQUENCY = 999999
*NODE OUTPUT
COORD, U, 
*NODE OUTPUT, NSET=I_INDENTER.REF_NODE
U
*ELEMENT OUTPUT, ELSET=I_SAMPLE.ALL_ELEMENTS, DIRECTIONS = YES
LE, EE, PE, PEEQ, S, 
*ELEMENT OUTPUT, ELSET=I_INDENTER.ALL_ELEMENTS, DIRECTIONS = YES
LE, EE, PE, PEEQ, S, 
*OUTPUT, HISTORY
*ENERGY OUTPUT
ALLFD, ALLWK
*ENERGY OUTPUT, ELSET=I_SAMPLE.ALL_ELEMENTS
ALLPD, ALLSE
*ENERGY OUTPUT, ELSET=I_INDENTER.ALL_ELEMENTS
ALLPD, ALLSE
*CONTACT OUTPUT, NSET=I_SAMPLE.SURFACE
CPRESS
*NODE OUTPUT, NSET=I_INDENTER.REF_NODE
U2, RF2, CF2
*NODE OUTPUT, NSET=I_INDENTER.TIP_NODE
U2
*NODE OUTPUT, NSET = I_SAMPLE.SURFACE
COOR1, COOR2, COOR3
*END STEP
**------------------------------------------------------------------------------
** STEP: RELOADING1
**------------------------------------------------------------------------------
*STEP, NAME = RELOADING1, NLGEOM = YES, INC=1000000
*STATIC, DIRECT
0.01, 1.0
*BOUNDARY, OP=NEW
I_SAMPLE.AXIS, 1, 1
I_SAMPLE.BOTTOM, 1, 3
I_INDENTER.AXIS, 1, 1
I_INDENTER.REF_NODE, 4, 6 
I_INDENTER.REF_NODE, 2, 2, -0.1
*RESTART, WRITE, FREQUENCY = 0
*OUTPUT, FIELD, FREQUENCY = 999999
*NODE OUTPUT
COORD, U, 
*NODE OUTPUT, NSET=I_INDENTER.REF_NODE
U
*ELEMENT OUTPUT, ELSET=I_SAMPLE.ALL_ELEMENTS, DIRECTIONS = YES
LE, EE, PE, PEEQ, S, 
*ELEMENT OUTPUT, ELSET=I_INDENTER.ALL_ELEMENTS, DIRECTIONS = YES
LE, EE, PE, PEEQ, S, 
*OUTPUT, HISTORY
*ENERGY OUTPUT
ALLFD, ALLWK
*ENERGY OUTPUT, ELSET=I_SAMPLE.ALL_ELEMENTS
ALLPD, ALLSE
*ENERGY OUTPUT, ELSET=I_INDENTER.ALL_ELEMENTS
ALLPD, ALLSE
*CONTACT OUTPUT, NSET=I_SAMPLE.SURFACE
CPRESS
*NODE OUTPUT, NSET=I_INDENTER.REF_NODE
U2, RF2, CF2
*NODE OUTPUT, NSET=I_INDENTER.TIP_NODE
U2
*NODE OUTPUT, NSET = I_SAMPLE.SURFACE
COOR1, COOR2, COOR3
*END STEP
**------------------------------------------------------------------------------
** STEP: LOADING2
**------------------------------------------------------------------------------
*STEP, NAME = LOADING2, NLGEOM = YES, INC=1000000
*STATIC, DIRECT
0.01, 1.0
*BOUNDARY, OP=NEW
I_SAMPLE.AXIS, 1, 1
I_SAMPLE.BOTTOM, 1, 3
I_INDENTER.AXIS, 1, 1
I_INDENTER.REF_NODE, 4, 6 
I_INDENTER.REF_NODE, 2, 2, -0.2
*RESTART, WRITE, FREQUENCY = 0
*OUTPUT, FIELD, FREQUENCY = 999999
*NODE OUTPUT
COORD, U, 
*NODE OUTPUT, NSET=I_INDENTER.REF_NODE
U
*ELEMENT OUTPUT, ELSET=I_SAMPLE.ALL_ELEMENTS, DIRECTIONS = YES
LE, EE, PE, PEEQ, S, 
*ELEMENT OUTPUT, ELSET=I_INDENTER.ALL_ELEMENTS, DIRECTIONS = YES
LE, EE, PE, PEEQ, S, 
*OUTPUT, HISTORY
*ENERGY OUTPUT
ALLFD, ALLWK
*ENERGY OUTPUT, ELSET=I_SAMPLE.ALL_ELEMENTS
ALLPD, ALLSE
*ENERGY OUTPUT, ELSET=I_INDENTER.ALL_ELEMENTS
ALLPD, ALLSE
*CONTACT OUTPUT, NSET=I_SAMPLE.SURFACE
CPRESS
*NODE OUTPUT, NSET=I_INDENTER.REF_NODE
U2, RF2, CF2
*NODE OUTPUT, NSET=I_INDENTER.TIP_NODE
U2
*NODE OUTPUT, NSET = I_SAMPLE.SURFACE
COOR1, COOR2, COOR3
*END STEP
**------------------------------------------------------------------------------
** STEP: UNLOADING2
**------------------------------------------------------------------------------
*STEP, NAME = UNLOADING2, NLGEOM = YES, INC=1000000
*STATIC, DIRECT
0.01, 1.0
*BOUNDARY, OP=NEW
I_SAMPLE.AXIS, 1, 1
I_SAMPLE.BOTTOM, 1, 3
I_INDENTER.AXIS, 1, 1
I_INDENTER.REF_NODE, 4, 6 
I_INDENTER.REF_NODE, 2, 2, 0.0
*RESTART, WRITE, FREQUENCY = 0
*OUTPUT, FIELD, FREQUENCY = 999999
*NODE OUTPUT
COORD, U, 
*NODE OUTPUT, NSET=I_INDENTER.REF_NODE
U
*ELEMENT OUTPUT, ELSET=I_SAMPLE.ALL_ELEMENTS, DIRECTIONS = YES
LE, EE, PE, PEEQ, S, 
*ELEMENT OUTPUT, ELSET=I_INDENTER.ALL_ELEMENTS, DIRECTIONS = YES
LE, EE, PE, PEEQ, S, 
*OUTPUT, HISTORY
*ENERGY OUTPUT
ALLFD, ALLWK
*ENERGY OUTPUT, ELSET=I_SAMPLE.ALL_ELEMENTS
ALLPD, ALLSE
*ENERGY OUTPUT, ELSET=I_INDENTER.ALL_ELEMENTS
ALLPD, ALLSE
*CONTACT OUTPUT, NSET=I_SAMPLE.SURFACE
CPRESS
*NODE OUTPUT, NSET=I_INDENTER.REF_NODE
U2, RF2, CF2
*NODE OUTPUT, NSET=I_INDENTER.TIP_NODE
U2
*NODE OUTPUT, NSET = I_SAMPLE.SURFACE
COOR1, COOR2, COOR3
*END STEP

