**----------------------------------
**INDENTATION SIMULATION
**----------------------------------
*HEADING
Abapy Indentation Simulation
*PREPRINT, ECHO=NO, MODEL=NO, HISTORY=NO, CONTACT=NO
**----------------------------------
** SAMPLE DEFINITION
*PART, NAME = P_SAMPLE
**------------------------------------------------------------------------------
** NODES
**------------------------------------------------------------------------------
*NODE, NSET=ALLNODES
1, 0.0, 0.0, 0.0
2, 0.0, -1.0, 0.0
3, 1.0, -1.0, 0.0
4, 1.0, 0.0, 0.0
5, 0.0, -2.0, 0.0
6, 2.0, 0.0, 0.0
7, 0.0, -10.0, 0.0
8, 10.0, 0.0, 0.0
9, 0.0, -0.333333333333, 0.0
10, 0.0, -0.666666666666, 0.0
11, 0.333333333333, -1.0, 0.0
12, 0.666666666666, -1.0, 0.0
13, 1.0, -0.666666666668, 0.0
14, 1.0, -0.333333333335, 0.0
15, 0.666666666668, 0.0, 0.0
16, 0.333333333335, 0.0, 0.0
17, 0.0, -1.25, 0.0
18, 0.0, -1.5, 0.0
19, 0.0, -1.75, 0.0
20, 0.223928952206, -1.98742441979, 0.0
** ... 158 like lines cut
**------------------------------------------------------------------------------
** NODE SETS
**------------------------------------------------------------------------------
*NSET, NSET=AXIS
1,2,5,7,9,10,17,18,19,36,37,38,39,40,41,
42,43,44,
*NSET, NSET=SURFACE
1,4,6,15,16,33,34,35,
*NSET, NSET=BOTTOM
7,8,45,46,47,48,49,50,51
**------------------------------------------------------------------------------
** ELEMENTS
**------------------------------------------------------------------------------
*ELEMENT, TYPE=CAX4, ELSET=CAX4_ELEMENTS
33, 1, 9, 61, 16,
34, 16, 61, 62, 15,
35, 15, 62, 14, 4,
36, 9, 10, 63, 61,
37, 61, 63, 64, 62,
38, 62, 64, 13, 14,
39, 10, 2, 11, 63,
40, 63, 11, 12, 64,
41, 64, 12, 3, 13,
42, 85, 78, 65, 74,
43, 86, 73, 66, 77,
44, 25, 26, 87, 69,
45, 86, 77, 12, 11,
46, 85, 14, 13, 78,
47, 66, 67, 81, 77,
48, 70, 88, 82, 68,
49, 31, 32, 84, 72,
50, 21, 71, 89, 20,
51, 75, 66, 71, 80,
52, 76, 79, 72, 65,
** ... 136 like lines cut
**------------------------------------------------------------------------------
** ELEMENT SETS
**------------------------------------------------------------------------------
*ELSET, ELSET=CORE
33,34,35,36,37,38,39,40,41,
*ELSET, ELSET=SHELL1
42,43,44,45,46,47,48,49,50,51,52,53,54,55,56,
57,58,59,60,61,62,63,64,65,66,67,68,69,70,71,72,
73,74,75,76,77,78,79,
*ELSET, ELSET=SHELL2
80,81,82,83,84,85,86,87,88,89,90,91,92,93,94,
95,96,97,98,99,100,101,102,103,104,105,106,107,108,109,110,
111,112,113,114,115,116,117,118,119,120,121,122,123,124,125,126,
127,128,129,130,131,132,133,134,135,136,137,138,139,140,141,142,
143,144,145,146,147,148,149,150,151,152,153,154,155,156,157,158,
159,160,161,162,163,164,165,166,167,168,169,170,171,172,173,174,
175,176,177,178,179,180,181,182,183,184,185,186,187,188,
*ELSET, ELSET=ALL_ELEMENTS
33,34,35,36,37,38,39,40,41,42,43,44,45,46,47,
48,49,50,51,52,53,54,55,56,57,58,59,60,61,62,63,
64,65,66,67,68,69,70,71,72,73,74,75,76,77,78,79,
80,81,82,83,84,85,86,87,88,89,90,91,92,93,94,95,
96,97,98,99,100,101,102,103,104,105,106,107,108,109,110,111,
112,113,114,115,116,117,118,119,120,121,122,123,124,125,126,127,
128,129,130,131,132,133,134,135,136,137,138,139,140,141,142,143,
144,145,146,147,148,149,150,151,152,153,154,155,156,157,158,159,
160,161,162,163,164,165,166,167,168,169,170,171,172,173,174,175,
176,177,178,179,180,181,182,183,184,185,186,187,188,
*ELSET, ELSET=_SURF_SURFACE_FACE1
70,72,
*ELSET, ELSET=_SURF_SURFACE_FACE3
63,
*ELSET, ELSET=_SURF_SURFACE_FACE4
33,34,35,59
**------------------------------------------------------------------------------
** SURFACES
**------------------------------------------------------------------------------
*SURFACE, TYPE=ELEMENT, NAME=SURFACE
  _SURF_SURFACE_FACE4, S4
  _SURF_SURFACE_FACE3, S3
  _SURF_SURFACE_FACE1, S1
*SOLID SECTION, ELSET = ALL_ELEMENTS, MATERIAL = SAMPLE_MAT
*END PART
**----------------------------------
** INDENTER DEFINITION
**----------------------------------
*PART, NAME = P_INDENTER
**------------------------------------------------------------------------------
** NODES
**------------------------------------------------------------------------------
*NODE, NSET=ALLNODES
1, 0.0, 0.0, 0.0
2, 0.866025403784, 0.5, 0.0
3, 5.0, 7.66025403784, 0.0
4, 0.0, 9.0, 0.0
5, 0.173648177667, 0.0151922469877, 0.0
6, 0.342020143325, 0.0603073792138, 0.0
7, 0.499999999999, 0.133974596215, 0.0
8, 0.642787609686, 0.23395555688, 0.0
9, 0.766044443119, 0.357212390313, 0.0
10, 0.98458741152, 0.705355421247, 0.0
11, 1.123095653, 0.945258732759, 0.0
12, 1.28572864262, 1.22694733377, 0.0
13, 1.47732865997, 1.55880829854, 0.0
14, 1.70355815095, 1.95064927109, 0.0
15, 1.97107506071, 2.41400215068, 0.0
16, 2.2877338623, 2.96247128369, 0.0
17, 2.6628192307, 3.61213819894, 0.0
18, 3.10732070007, 4.38203732793, 0.0
19, 3.6342557717, 5.29471564428, 0.0
20, 4.25905215752, 6.37689472891, 0.0
** ... 79 like lines cut
**------------------------------------------------------------------------------
** NODE SETS
**------------------------------------------------------------------------------
*NSET, NSET=BOTTOM
3,4,21,22,23,
*NSET, NSET=REF_NODE
4,
*NSET, NSET=SURFACE
1,2,3,5,6,7,8,9,10,11,12,13,14,15,16,
17,18,19,20,
*NSET, NSET=RIGID_NODES
3,4,21,22,23,
*NSET, NSET=TIP_NODE
1,
*NSET, NSET=AXIS
1,4,24,25,26,27,28,29,30,31,32,33,34,35,36,
37,38
**------------------------------------------------------------------------------
** ELEMENTS
**------------------------------------------------------------------------------
*ELEMENT, TYPE=CAX4, ELSET=CAX4_ELEMENTS
39, 55, 39, 58, 98,
40, 80, 76, 40, 60,
41, 67, 37, 38, 90,
42, 72, 56, 32, 33,
43, 50, 86, 51, 42,
44, 77, 44, 67, 90,
45, 85, 62, 41, 86,
46, 35, 98, 58, 34,
47, 77, 64, 70, 44,
48, 53, 92, 54, 43,
49, 93, 86, 41, 63,
50, 70, 46, 68, 44,
51, 47, 60, 40, 81,
52, 72, 81, 40, 56,
53, 77, 90, 5, 6,
54, 68, 55, 67, 44,
55, 24, 69, 23, 4,
56, 39, 46, 79, 57,
57, 46, 39, 55, 68,
58, 92, 84, 50, 42,
** ... 59 like lines cut
**------------------------------------------------------------------------------
** ELEMENT SETS
**------------------------------------------------------------------------------
*ELSET, ELSET=_SURF_SURFACE_FACE1
67,78,86,95,103,108,
*ELSET, ELSET=_SURF_SURFACE_FACE3
53,89,
*ELSET, ELSET=ALL_ELEMENTS
39,40,41,42,43,44,45,46,47,48,49,50,51,52,53,
54,55,56,57,58,59,60,61,62,63,64,65,66,67,68,69,
70,71,72,73,74,75,76,77,78,79,80,81,82,83,84,85,
86,87,88,89,90,91,92,93,94,95,96,97,98,99,100,101,
102,103,104,105,106,107,108,109,110,111,112,113,114,115,116,117,
*ELSET, ELSET=_SURF_SURFACE_FACE4
66,97,98,104,114,115,
*ELSET, ELSET=_SURF_SURFACE_FACE2
60,63,65,76
**------------------------------------------------------------------------------
** SURFACES
**------------------------------------------------------------------------------
*SURFACE, TYPE=ELEMENT, NAME=SURFACE
  _SURF_SURFACE_FACE3, S3
  _SURF_SURFACE_FACE2, S2
  _SURF_SURFACE_FACE4, S4
  _SURF_SURFACE_FACE1, S1
*SOLID SECTION, ELSET = ALL_ELEMENTS, MATERIAL = INDENTER_MAT
*RIGID BODY, REF NODE = REF_NODE, PIN NSET=RIGID_NODES
*END PART
**----------------------------------
** ASSEMBLY
**----------------------------------
*ASSEMBLY, NAME = ASSEMBLY
*INSTANCE, NAME = I_SAMPLE, PART = P_SAMPLE
*END INSTANCE
*INSTANCE, NAME = I_INDENTER, PART= P_INDENTER
*END INSTANCE
*END ASSEMBLY
**----------------------------------
** SURFACE INTERACTIONS
**----------------------------------
*SURFACE INTERACTION, NAME = SURF_INT
*FRICTION
0.0,
*SURFACE BEHAVIOR, PRESSURE-OVERCLOSURE = HARD
*CONTACT PAIR, INTERACTION = SURF_INT, SUPPLEMENTARY CONSTRAINTS = NO, TYPE= NODE TO SURFACE
I_SAMPLE.SURFACE, I_INDENTER.SURFACE
**----------------------------------
** MATERIALS
**----------------------------------
** SAMPLE MATERIAL
** <VonMises instance: 1 samples>
*MATERIAL, NAME=SAMPLE_MAT
*ELASTIC
  1.0, 0.3
*PLASTIC
  0.01, 0.
** INDENTER MATERIAL
** <Elastic instance: 1 samples>
*MATERIAL, NAME=INDENTER_MAT
*ELASTIC
  1.0, 0.3
**----------------------------------
** STEPS
**----------------------------------
*STEP, NAME = LOADING1, NLGEOM = YES, INC=1000000
*STATIC, DIRECT
0.02, 1.
*BOUNDARY
I_SAMPLE.AXIS, 1, 1
I_SAMPLE.BOTTOM, 1, 3
I_INDENTER.AXIS, 1, 1
I_INDENTER.REF_NODE, 4, 6 
I_INDENTER.REF_NODE, 2, 2, -0.166758329628
*RESTART, WRITE, FREQUENCY = 0
*OUTPUT, FIELD, FREQUENCY = 999999
*NODE OUTPUT
COORD, U, 
*NODE OUTPUT, NSET=I_INDENTER.REF_NODE
U
*ELEMENT OUTPUT, ELSET=I_SAMPLE.ALL_ELEMENTS, DIRECTIONS = YES
LE, EE, PE, PEEQ, S, 
*ELEMENT OUTPUT, ELSET=I_INDENTER.ALL_ELEMENTS, DIRECTIONS = YES
LE, EE, PE, PEEQ, S, 
*OUTPUT, HISTORY
*ENERGY OUTPUT
ALLFD, ALLWK
*ENERGY OUTPUT, ELSET=I_SAMPLE.ALL_ELEMENTS
ALLPD
*ENERGY OUTPUT, ELSET=I_SAMPLE.ALL_ELEMENTS
ALLSE
*ENERGY OUTPUT, ELSET=I_INDENTER.ALL_ELEMENTS
ALLSE
*CONTACT OUTPUT, NSET=I_SAMPLE.SURFACE
CPRESS
*NODE OUTPUT, NSET=I_INDENTER.REF_NODE
U2
*NODE OUTPUT, NSET=I_INDENTER.TIP_NODE
U2
*NODE OUTPUT, NSET=I_INDENTER.REF_NODE
RF2
*NODE OUTPUT, NSET = I_SAMPLE.SURFACE
COOR1, COOR2, COOR3
*END STEP
*STEP, NAME = LOADING2, NLGEOM = YES, INC=1000000
*STATIC, DIRECT
0.02, 1.
*BOUNDARY
I_SAMPLE.AXIS, 1, 1
I_SAMPLE.BOTTOM, 1, 3
I_INDENTER.AXIS, 1, 1
I_INDENTER.REF_NODE, 4, 6 
I_INDENTER.REF_NODE, 2, 2, 0.
*RESTART, WRITE, FREQUENCY = 0
*OUTPUT, FIELD, FREQUENCY = 999999
*NODE OUTPUT
COORD, U, 
*NODE OUTPUT, NSET=I_INDENTER.REF_NODE
U
*ELEMENT OUTPUT, ELSET=I_SAMPLE.ALL_ELEMENTS, DIRECTIONS = YES
LE, EE, PE, PEEQ, S, 
*ELEMENT OUTPUT, ELSET=I_INDENTER.ALL_ELEMENTS, DIRECTIONS = YES
LE, EE, PE, PEEQ, S, 
*OUTPUT, HISTORY
*ENERGY OUTPUT
ALLFD, ALLWK
*ENERGY OUTPUT, ELSET=I_SAMPLE.ALL_ELEMENTS
ALLPD
*ENERGY OUTPUT, ELSET=I_SAMPLE.ALL_ELEMENTS
ALLSE
*ENERGY OUTPUT, ELSET=I_INDENTER.ALL_ELEMENTS
ALLSE
*CONTACT OUTPUT, NSET=I_SAMPLE.SURFACE
CPRESS
*NODE OUTPUT, NSET=I_INDENTER.REF_NODE
U2
*NODE OUTPUT, NSET=I_INDENTER.TIP_NODE
U2
*NODE OUTPUT, NSET=I_INDENTER.REF_NODE
RF2
*NODE OUTPUT, NSET = I_SAMPLE.SURFACE
COOR1, COOR2, COOR3
*END STEP
