**------------------------------------------------------------------------------
**INDENTATION SIMULATION
**------------------------------------------------------------------------------
*HEADING
Abapy Indentation Simulation
*PREPRINT, ECHO=NO, MODEL=NO, HISTORY=NO, CONTACT=NO
**------------------------------------------------------------------------------
** SAMPLE DEFINITION
**------------------------------------------------------------------------------
*PART, NAME = P_SAMPLE
********************************************************************************
** NODES ***********************************************************************
********************************************************************************
*NODE
  1, 0.0, 0.0, 0.0
  2, 0.0, -1.0, 0.0
  3, 1.0, -1.0, 0.0
  4, 1.0, 0.0, 0.0
  5, 0.0, -2.0, 0.0
  6, 2.0, 0.0, 0.0
  7, 0.0, -3.0, 0.0
  8, 3.0, 0.0, 0.0
  9, 0.0, -0.03124999999994045, 0.0
  10, 0.0, -0.06249999999987293, 0.0
  11, 0.0, -0.09374999999982372, 0.0
  12, 0.0, -0.1249999999997731, 0.0
  13, 0.0, -0.1562499999996846, 0.0
  14, 0.0, -0.1874999999995934, 0.0
  15, 0.0, -0.2187499999995022, 0.0
  16, 0.0, -0.2499999999994109, 0.0
  17, 0.0, -0.2812499999993197, 0.0
  18, 0.0, -0.3124999999992285, 0.0
  19, 0.0, -0.3437499999991373, 0.0
  20, 0.0, -0.3749999999990461, 0.0
** ... 4345 like lines cut
********************************************************************************
** NODE SETS *******************************************************************
********************************************************************************
*NSET, NSET=ALL_NODES
  1,2,3,4,5,6,7,8,9,10,11,12,13,14,15,
  16,17,18,19,20,21,22,23,24,25,26,27,28,
  29,30,31,32,33,34,35,36,37,38,39,40,41,
  42,43,44,45,46,47,48,49,50,51,52,53,54,
  55,56,57,58,59,60,61,62,63,64,65,66,67,
  68,69,70,71,72,73,74,75,76,77,78,79,80,
  81,82,83,84,85,86,87,88,89,90,91,92,93,
  94,95,96,97,98,99,100,101,102,103,104,
  105,106,107,108,109,110,111,112,113,
  114,115,116,117,118,119,120,121,122,
  123,124,125,126,127,128,129,130,131,
  132,133,134,135,136,137,138,139,140,
  141,142,143,144,145,146,147,148,149,
  150,151,152,153,154,155,156,157,158,
  159,160,161,162,163,164,165,166,167,
  168,169,170,171,172,173,174,175,176,
  177,178,179,180,181,182,183,184,185,
  186,187,188,189,190,191,192,193,194,
  195,196,197,198,199,200,201,202,203,
  204,205,206,207,208,209,210,211,212,
** ... 569 like lines cut
*NSET, NSET=SURFACE
  1,4,6,134,135,136,137,138,139,140,
  141,142,143,144,145,146,147,148,149,
  150,151,152,153,154,155,156,157,158,
  159,160,161,162,163,164,165,166,167,
  168,169,170,171,172,173,174,175,176,
  177,178,179,180,181,182,183,184,185,
  186,187,188,189,190,191,192,193,194,
  195,196,295,296,297,298,299,300,301,
  302,303,304,305,306,307,308,309,310,
  311,312,313,314,315,316,317,318,319,
*NSET, NSET=BOTTOM
  7,8,321,322,323,324,325,326,327,328,
  329,330,331,332,333,334,335,336,337,
  338,339,340,341,342,343,344,345,346,
  347,348,349,350,351,352,353,354,355,
  356,357,358,359,360,361,362,363,364,
  365,366,367,368,369,370,371,372,373,
  374,375,376,377,378,379,380,381,382,
  383,
*NSET, NSET=AXIS
  1,2,5,7,9,10,11,12,13,14,15,16,17,18,
  19,20,21,22,23,24,25,26,27,28,29,30,31,
  32,33,34,35,36,37,38,39,197,198,199,
  200,201,202,203,204,205,206,207,208,
  209,210,211,212,213,214,215,216,217,
  218,219,220,221,222,223,224,225,226,
  227,228,229,230,231,320
********************************************************************************
** ELEMENTS ********************************************************************
********************************************************************************
*ELEMENT, TYPE=CAX4R
  225, 1, 9, 385, 196
  226, 196, 385, 386, 195
  227, 195, 386, 387, 194
  228, 194, 387, 388, 193
  229, 193, 388, 389, 192
  230, 192, 389, 390, 191
  231, 191, 390, 391, 190
  232, 190, 391, 392, 189
  233, 189, 392, 393, 188
  234, 188, 393, 394, 187
  235, 187, 394, 395, 186
  236, 186, 395, 396, 185
  237, 185, 396, 397, 184
  238, 184, 397, 398, 183
  239, 183, 398, 399, 182
  240, 182, 399, 400, 181
  241, 181, 400, 401, 180
  242, 180, 401, 402, 179
  243, 179, 402, 403, 178
  244, 178, 403, 404, 177
** ... 4231 like lines cut
********************************************************************************
** ELEMENT SETS ****************************************************************
********************************************************************************
*ELSET, ELSET=SHELL2
  4348,4349,4350,4351,4352,4353,4354,
  4355,4356,4357,4358,4359,4360,4361,
  4362,4363,4364,4365,4366,4367,4368,
  4369,4370,4371,4372,4373,4374,4375,
  4376,4377,4378,4379,4380,4381,4382,
  4383,4384,4385,4386,4387,4388,4389,
  4390,4391,4392,4393,4394,4395,4396,
  4397,4398,4399,4400,4401,4402,4403,
  4404,4405,4406,4407,4408,4409,4410,
  4411,4412,4413,4414,4415,4416,4417,
  4418,4419,4420,4421,4422,4423,4424,
  4425,4426,4427,4428,4429,4430,4431,
  4432,4433,4434,4435,4436,4437,4438,
  4439,4440,4441,4442,4443,4444,4445,
  4446,4447,4448,4449,4450,4451,4452,
  4453,4454,4455,4456,4457,4458,4459,
  4460,4461,4462,4463,4464,4465,4466,
  4467,4468,4469,4470,4471,4472,4473,
  4474,4475,
*ELSET, ELSET=SHELL1
  2273,2274,2275,2276,2277,2278,2279,
  2280,2281,2282,2283,2284,2285,2286,
  2287,2288,2289,2290,2291,2292,2293,
  2294,2295,2296,2297,2298,2299,2300,
  2301,2302,2303,2304,2305,2306,2307,
  2308,2309,2310,2311,2312,2313,2314,
  2315,2316,2317,2318,2319,2320,2321,
  2322,2323,2324,2325,2326,2327,2328,
  2329,2330,2331,2332,2333,2334,2335,
  2336,2337,2338,2339,2340,2341,2342,
  2343,2344,2345,2346,2347,2348,2349,
  2350,2351,2352,2353,2354,2355,2356,
  2357,2358,2359,2360,2361,2362,2363,
  2364,2365,2366,2367,2368,2369,2370,
  2371,2372,2373,2374,2375,2376,2377,
  2378,2379,2380,2381,2382,2383,2384,
  2385,2386,2387,2388,2389,2390,2391,
  2392,2393,2394,2395,2396,2397,2398,
  2399,2400,2401,2402,2403,2404,2405,
  2406,2407,2408,2409,2410,2411,2412,
** ... 277 like lines cut
*ELSET, ELSET=CORE
  225,226,227,228,229,230,231,232,233,
  234,235,236,237,238,239,240,241,242,
  243,244,245,246,247,248,249,250,251,
  252,253,254,255,256,257,258,259,260,
  261,262,263,264,265,266,267,268,269,
  270,271,272,273,274,275,276,277,278,
  279,280,281,282,283,284,285,286,287,
  288,289,290,291,292,293,294,295,296,
  297,298,299,300,301,302,303,304,305,
  306,307,308,309,310,311,312,313,314,
  315,316,317,318,319,320,321,322,323,
  324,325,326,327,328,329,330,331,332,
  333,334,335,336,337,338,339,340,341,
  342,343,344,345,346,347,348,349,350,
  351,352,353,354,355,356,357,358,359,
  360,361,362,363,364,365,366,367,368,
  369,370,371,372,373,374,375,376,377,
  378,379,380,381,382,383,384,385,386,
  387,388,389,390,391,392,393,394,395,
  396,397,398,399,400,401,402,403,404,
** ... 248 like lines cut
*ELSET, ELSET=ALL_ELEMENTS
  225,226,227,228,229,230,231,232,233,
  234,235,236,237,238,239,240,241,242,
  243,244,245,246,247,248,249,250,251,
  252,253,254,255,256,257,258,259,260,
  261,262,263,264,265,266,267,268,269,
  270,271,272,273,274,275,276,277,278,
  279,280,281,282,283,284,285,286,287,
  288,289,290,291,292,293,294,295,296,
  297,298,299,300,301,302,303,304,305,
  306,307,308,309,310,311,312,313,314,
  315,316,317,318,319,320,321,322,323,
  324,325,326,327,328,329,330,331,332,
  333,334,335,336,337,338,339,340,341,
  342,343,344,345,346,347,348,349,350,
  351,352,353,354,355,356,357,358,359,
  360,361,362,363,364,365,366,367,368,
  369,370,371,372,373,374,375,376,377,
  378,379,380,381,382,383,384,385,386,
  387,388,389,390,391,392,393,394,395,
  396,397,398,399,400,401,402,403,404,
** ... 563 like lines cut
*ELSET, ELSET=_SURF_SURFACE_FACE1
  3098,3134,
*ELSET, ELSET=_SURF_SURFACE_FACE2
  3069,3072,3075,3076,3078,3080,3081,
  3083,3084,3085,3087,3088,3089,3093,
  3094,3099,3118,
*ELSET, ELSET=_SURF_SURFACE_FACE3
  3224,
*ELSET, ELSET=_SURF_SURFACE_FACE4
  225,226,227,228,229,230,231,232,233,
  234,235,236,237,238,239,240,241,242,
  243,244,245,246,247,248,249,250,251,
  252,253,254,255,256,257,258,259,260,
  261,262,263,264,265,266,267,268,269,
  270,271,272,273,274,275,276,277,278,
  279,280,281,282,283,284,285,286,287,
  288,3220,3245,3322,3348,3380,3434,
*ELSET, ELSET=_MAT_SAMPLE_MAT
  225,226,227,228,229,230,231,232,233,
  234,235,236,237,238,239,240,241,242,
  243,244,245,246,247,248,249,250,251,
  252,253,254,255,256,257,258,259,260,
  261,262,263,264,265,266,267,268,269,
  270,271,272,273,274,275,276,277,278,
  279,280,281,282,283,284,285,286,287,
  288,289,290,291,292,293,294,295,296,
  297,298,299,300,301,302,303,304,305,
  306,307,308,309,310,311,312,313,314,
  315,316,317,318,319,320,321,322,323,
  324,325,326,327,328,329,330,331,332,
  333,334,335,336,337,338,339,340,341,
  342,343,344,345,346,347,348,349,350,
  351,352,353,354,355,356,357,358,359,
  360,361,362,363,364,365,366,367,368,
  369,370,371,372,373,374,375,376,377,
  378,379,380,381,382,383,384,385,386,
  387,388,389,390,391,392,393,394,395,
  396,397,398,399,400,401,402,403,404,
** ... 563 like lines cut
********************************************************************************
** SURFACES ********************************************************************
********************************************************************************
*SURFACE, TYPE=ELEMENT, NAME=SURFACE
  _SURF_SURFACE_FACE1, S1
  _SURF_SURFACE_FACE2, S2
  _SURF_SURFACE_FACE3, S3
  _SURF_SURFACE_FACE4, S4 
********************************************************************************
** SECTIONS ********************************************************************
********************************************************************************
*SOLID SECTION, ELSET=_MAT_SAMPLE_MAT, MATERIAL=SAMPLE_MAT
*END PART
**------------------------------------------------------------------------------
** INDENTER DEFINITION
**------------------------------------------------------------------------------
*PART, NAME = P_INDENTER
********************************************************************************
** NODES ***********************************************************************
********************************************************************************
*NODE
  1, 0.0, 0.0, 0.0
  2, 0.866025403784, 0.5, 0.0
  3, 1.5, 1.59807621135, 0.0
  4, 0.0, 2.0, 0.0
  5, 0.02908471874299672, 0.00042304991779607004, 0.0
  6, 0.05814482891030408, 0.001691841728721832, 0.0
  7, 0.0871557427474407, 0.0038053019082354704, 0.0
  8, 0.1160929141249621, 0.0067616422580256685, 0.0
  9, 0.1449318593069159, 0.01055836141900701, 0.0
  10, 0.1736481776665182, 0.01519224698771926, 0.0
  11, 0.2022175723315472, 0.02065937823434716, 0.0
  12, 0.2306158707418676, 0.02695512942004041, 0.0
  13, 0.2588190451018716, 0.034074173710757834, 0.0
  14, 0.28680323271034197, 0.042010487684287064, 0.0
  15, 0.3145447561508052, 0.050757356426698215, 0.0
  16, 0.3420201433247649, 0.06030737921376261, 0.0
  17, 0.3692061473116938, 0.070652475772784, 0.0
  18, 0.3960797660380787, 0.08178389311926093, 0.0
  19, 0.4226182617395784, 0.09369221296282726, 0.0
  20, 0.4487991801992985, 0.1063673596760033, 0.0
** ... 903 like lines cut
********************************************************************************
** NODE SETS *******************************************************************
********************************************************************************
*NSET, NSET=ALL_NODES
  1,2,3,4,5,6,7,8,9,10,11,12,13,14,15,
  16,17,18,19,20,21,22,23,24,25,26,27,28,
  29,30,31,32,33,34,35,36,37,38,39,40,41,
  42,43,44,45,46,47,48,49,50,51,52,53,54,
  55,56,57,58,59,60,61,62,63,64,65,66,67,
  68,69,70,71,72,73,74,75,76,77,78,79,80,
  81,82,83,84,85,86,87,88,89,90,91,92,93,
  94,95,96,97,98,99,100,101,102,103,104,
  105,106,107,108,109,110,111,112,113,
  114,115,116,117,118,119,120,121,122,
  123,124,125,126,127,128,129,130,131,
  132,133,134,135,136,137,138,139,140,
  141,142,143,144,145,146,147,148,149,
  150,151,152,153,154,155,156,157,158,
  159,160,161,162,163,164,165,166,167,
  168,169,170,171,172,173,174,175,176,
  177,178,179,180,181,182,183,184,185,
  186,187,188,189,190,191,192,193,194,
  195,196,197,198,199,200,201,202,203,
  204,205,206,207,208,209,210,211,212,
** ... 79 like lines cut
*NSET, NSET=SURFACE
  1,2,3,5,6,7,8,9,10,11,12,13,14,15,16,
  17,18,19,20,21,22,23,24,25,26,27,28,29,
  30,31,32,33,34,35,36,37,38,39,40,41,42,
  43,44,45,46,47,48,49,50,
*NSET, NSET=BOTTOM
  3,4,51,52,53,54,55,
*NSET, NSET=AXIS
  1,4,56,57,58,59,60,61,62,63,64,65,66,
  67,68,69,70,71,72,73,74,75,76,77,78,79,
  80,81,82,83,84,85,86,87,88,89,90,91,92,
  93,94,95,96,97,98,
*NSET, NSET=TIP_NODE
  1,
*NSET, NSET=REF_NODE
  4,
*NSET, NSET=RIGID_NODES
  3,4,51,52,53,54,55
********************************************************************************
** ELEMENTS ********************************************************************
********************************************************************************
*ELEMENT, TYPE=CAX3
  99, 128, 40, 41
  100, 41, 42, 128
*ELEMENT, TYPE=CAX4R
  101, 780, 810, 800, 771
  102, 856, 835, 811, 847
  103, 699, 668, 596, 628
  104, 534, 479, 615, 572
  105, 668, 637, 559, 596
  106, 318, 341, 329, 285
  107, 912, 920, 907, 911
  108, 886, 901, 892, 872
  109, 906, 888, 890, 902
  110, 915, 914, 901, 920
  111, 599, 625, 688, 651
  112, 921, 916, 908, 914
  113, 914, 908, 892, 901
  114, 370, 288, 228, 274
  115, 920, 901, 886, 907
  116, 379, 440, 493, 410
  117, 784, 752, 735, 783
  118, 572, 615, 655, 646
  119, 291, 229, 212, 281
  120, 111, 170, 221, 298
** ... 852 like lines cut
********************************************************************************
** ELEMENT SETS ****************************************************************
********************************************************************************
*ELSET, ELSET=ALL_ELEMENTS
  99,100,101,102,103,104,105,106,107,
  108,109,110,111,112,113,114,115,116,
  117,118,119,120,121,122,123,124,125,
  126,127,128,129,130,131,132,133,134,
  135,136,137,138,139,140,141,142,143,
  144,145,146,147,148,149,150,151,152,
  153,154,155,156,157,158,159,160,161,
  162,163,164,165,166,167,168,169,170,
  171,172,173,174,175,176,177,178,179,
  180,181,182,183,184,185,186,187,188,
  189,190,191,192,193,194,195,196,197,
  198,199,200,201,202,203,204,205,206,
  207,208,209,210,211,212,213,214,215,
  216,217,218,219,220,221,222,223,224,
  225,226,227,228,229,230,231,232,233,
  234,235,236,237,238,239,240,241,242,
  243,244,245,246,247,248,249,250,251,
  252,253,254,255,256,257,258,259,260,
  261,262,263,264,265,266,267,268,269,
  270,271,272,273,274,275,276,277,278,
** ... 78 like lines cut
*ELSET, ELSET=_SURF_SURFACE_FACE1
  100,478,509,525,538,542,569,612,678,
  686,692,790,848,913,914,916,
*ELSET, ELSET=_SURF_SURFACE_FACE2
  99,526,583,586,589,593,595,596,597,
  598,599,602,606,610,622,642,645,
*ELSET, ELSET=_SURF_SURFACE_FACE3
  124,171,173,175,178,180,607,608,613,
  626,
*ELSET, ELSET=_SURF_SURFACE_FACE4
  469,474,487,672,947,
*ELSET, ELSET=_MAT_INDENTER_MAT
  99,100,101,102,103,104,105,106,107,
  108,109,110,111,112,113,114,115,116,
  117,118,119,120,121,122,123,124,125,
  126,127,128,129,130,131,132,133,134,
  135,136,137,138,139,140,141,142,143,
  144,145,146,147,148,149,150,151,152,
  153,154,155,156,157,158,159,160,161,
  162,163,164,165,166,167,168,169,170,
  171,172,173,174,175,176,177,178,179,
  180,181,182,183,184,185,186,187,188,
  189,190,191,192,193,194,195,196,197,
  198,199,200,201,202,203,204,205,206,
  207,208,209,210,211,212,213,214,215,
  216,217,218,219,220,221,222,223,224,
  225,226,227,228,229,230,231,232,233,
  234,235,236,237,238,239,240,241,242,
  243,244,245,246,247,248,249,250,251,
  252,253,254,255,256,257,258,259,260,
  261,262,263,264,265,266,267,268,269,
  270,271,272,273,274,275,276,277,278,
** ... 78 like lines cut
********************************************************************************
** SURFACES ********************************************************************
********************************************************************************
*SURFACE, TYPE=ELEMENT, NAME=SURFACE
  _SURF_SURFACE_FACE1, S1
  _SURF_SURFACE_FACE2, S2
  _SURF_SURFACE_FACE3, S3
  _SURF_SURFACE_FACE4, S4 
********************************************************************************
** SECTIONS ********************************************************************
********************************************************************************
*SOLID SECTION, ELSET=_MAT_INDENTER_MAT, MATERIAL=INDENTER_MAT
*RIGID BODY, REF NODE = REF_NODE, PIN NSET=RIGID_NODES
*END PART
**------------------------------------------------------------------------------
** ASSEMBLY
**------------------------------------------------------------------------------
*ASSEMBLY, NAME = ASSEMBLY
*INSTANCE, NAME = I_SAMPLE, PART = P_SAMPLE
*END INSTANCE
*INSTANCE, NAME = I_INDENTER, PART= P_INDENTER
*END INSTANCE
*END ASSEMBLY
**------------------------------------------------------------------------------
** SURFACE INTERACTIONS
**------------------------------------------------------------------------------
*SURFACE INTERACTION, NAME = SURF_INT
*FRICTION
0.0,
*SURFACE BEHAVIOR, PRESSURE-OVERCLOSURE = HARD
*CONTACT PAIR, INTERACTION = SURF_INT, SUPPLEMENTARY CONSTRAINTS = NO, TYPE= NODE TO SURFACE
I_SAMPLE.SURFACE, I_INDENTER.SURFACE
**------------------------------------------------------------------------------
** MATERIALS
**------------------------------------------------------------------------------
********************************************************************************
** MATERIAL CLASS: Hollomon / LABEL: SAMPLE_MAT
********************************************************************************
** Poisson_ratio = 0.3
** Young_modulus = 1.0
** hardening_exponent = 0.2
** label = SAMPLE_MAT
** max_strain = 10.0
** strain_data_points = 100
** yield_stress = 0.01
*MATERIAL, NAME = SAMPLE_MAT
*ELASTIC
  1.0, 0.3
*PLASTIC
0.01,0.0
0.010140528875638688,0.0005821433444645457
0.010283032587766203,0.001214537366211155
0.01042753888853768,0.0019009285058829827
0.010574075920106167,0.0026453355645541243
0.010722672220103233,0.0034520694091648204
0.010873356727196562,0.004325754102332775
0.011026158786725691,0.00527134955948075
0.011181108156416911,0.0062941758436599275
0.011338235012178493,0.007399939216425348
0.011497569953977358,0.008594760071673115
0.011659144011798317,0.009885202888520522
0.011822988651687072,0.011278308349144527
0.011989135781878126,0.01278162777803898
0.012157617759008817,0.01440326007045805
0.012328467394420662,0.016151891289937357
0.012501717960549276,0.01803683712778488
0.012677403197404076,0.020068088431373213
0.012855557319139024,0.02225636002301229
0.013036215020715756,0.024613143047208925
** ... 80 like lines cut
********************************************************************************
** MATERIAL CLASS: Hollomon / LABEL: INDENTER_MAT
********************************************************************************
** Poisson_ratio = 0.3
** Young_modulus = 1.0
** hardening_exponent = 0.2
** label = INDENTER_MAT
** max_strain = 10.0
** strain_data_points = 100
** yield_stress = 0.01
*MATERIAL, NAME = INDENTER_MAT
*ELASTIC
  1.0, 0.3
*PLASTIC
0.01,0.0
0.010140528875638688,0.0005821433444645457
0.010283032587766203,0.001214537366211155
0.01042753888853768,0.0019009285058829827
0.010574075920106167,0.0026453355645541243
0.010722672220103233,0.0034520694091648204
0.010873356727196562,0.004325754102332775
0.011026158786725691,0.00527134955948075
0.011181108156416911,0.0062941758436599275
0.011338235012178493,0.007399939216425348
0.011497569953977358,0.008594760071673115
0.011659144011798317,0.009885202888520522
0.011822988651687072,0.011278308349144527
0.011989135781878126,0.01278162777803898
0.012157617759008817,0.01440326007045805
0.012328467394420662,0.016151891289937357
0.012501717960549276,0.01803683712778488
0.012677403197404076,0.020068088431373213
0.012855557319139024,0.02225636002301229
0.013036215020715756,0.024613143047208925
** ... 80 like lines cut
**------------------------------------------------------------------------------
** STEPS
**------------------------------------------------------------------------------
**------------------------------------------------------------------------------
** STEP: LOADING1
**------------------------------------------------------------------------------
*STEP, NAME = LOADING1, NLGEOM = YES, INC=1000000
*STATIC
0.02, 1.0, 1e-08, 0.02
*BOUNDARY, OP=NEW
I_SAMPLE.AXIS, 1, 1
I_SAMPLE.BOTTOM, 1, 3
I_INDENTER.AXIS, 1, 1
I_INDENTER.REF_NODE, 4, 6 
I_INDENTER.REF_NODE, 2, 2, -0.2
*RESTART, WRITE, FREQUENCY = 0
*OUTPUT, FIELD, FREQUENCY = 99999
*NODE OUTPUT
COORD, U, 
*NODE OUTPUT, NSET=I_INDENTER.REF_NODE
U
*ELEMENT OUTPUT, ELSET=I_SAMPLE.ALL_ELEMENTS, DIRECTIONS = YES
LE, EE, PE, PEEQ, S, 
*ELEMENT OUTPUT, ELSET=I_INDENTER.ALL_ELEMENTS, DIRECTIONS = YES
LE, EE, PE, PEEQ, S, 
*OUTPUT, HISTORY
*ENERGY OUTPUT
ALLFD, ALLWK
*ENERGY OUTPUT, ELSET=I_SAMPLE.ALL_ELEMENTS
ALLPD, ALLSE
*ENERGY OUTPUT, ELSET=I_INDENTER.ALL_ELEMENTS
ALLPD, ALLSE
*CONTACT OUTPUT, NSET=I_SAMPLE.SURFACE
CPRESS
*NODE OUTPUT, NSET=I_INDENTER.REF_NODE
U2, RF2, CF2
*NODE OUTPUT, NSET=I_INDENTER.TIP_NODE
U2
*NODE OUTPUT, NSET = I_SAMPLE.SURFACE
COOR1, COOR2, COOR3
*END STEP
**------------------------------------------------------------------------------
** STEP: UNLOADING1
**------------------------------------------------------------------------------
*STEP, NAME = UNLOADING1, NLGEOM = YES, INC=1000000
*STATIC
0.02, 1.0, 1e-08, 0.02
*BOUNDARY, OP=NEW
I_SAMPLE.AXIS, 1, 1
I_SAMPLE.BOTTOM, 1, 3
I_INDENTER.AXIS, 1, 1
I_INDENTER.REF_NODE, 4, 6 
*CLOAD
I_INDENTER.REF_NODE, 2, 0.0
*RESTART, WRITE, FREQUENCY = 0
*OUTPUT, FIELD, FREQUENCY = 99999
*NODE OUTPUT
COORD, U, 
*NODE OUTPUT, NSET=I_INDENTER.REF_NODE
U
*ELEMENT OUTPUT, ELSET=I_SAMPLE.ALL_ELEMENTS, DIRECTIONS = YES
LE, EE, PE, PEEQ, S, 
*ELEMENT OUTPUT, ELSET=I_INDENTER.ALL_ELEMENTS, DIRECTIONS = YES
LE, EE, PE, PEEQ, S, 
*OUTPUT, HISTORY
*ENERGY OUTPUT
ALLFD, ALLWK
*ENERGY OUTPUT, ELSET=I_SAMPLE.ALL_ELEMENTS
ALLPD, ALLSE
*ENERGY OUTPUT, ELSET=I_INDENTER.ALL_ELEMENTS
ALLPD, ALLSE
*CONTACT OUTPUT, NSET=I_SAMPLE.SURFACE
CPRESS
*NODE OUTPUT, NSET=I_INDENTER.REF_NODE
U2, RF2, CF2
*NODE OUTPUT, NSET=I_INDENTER.TIP_NODE
U2
*NODE OUTPUT, NSET = I_SAMPLE.SURFACE
COOR1, COOR2, COOR3
*END STEP
**------------------------------------------------------------------------------
** STEP: RELOADING1
**------------------------------------------------------------------------------
*STEP, NAME = RELOADING1, NLGEOM = YES, INC=1000000
*STATIC
0.02, 1.0, 1e-08, 0.02
*BOUNDARY, OP=NEW
I_SAMPLE.AXIS, 1, 1
I_SAMPLE.BOTTOM, 1, 3
I_INDENTER.AXIS, 1, 1
I_INDENTER.REF_NODE, 4, 6 
I_INDENTER.REF_NODE, 2, 2, -0.2
*RESTART, WRITE, FREQUENCY = 0
*OUTPUT, FIELD, FREQUENCY = 99999
*NODE OUTPUT
COORD, U, 
*NODE OUTPUT, NSET=I_INDENTER.REF_NODE
U
*ELEMENT OUTPUT, ELSET=I_SAMPLE.ALL_ELEMENTS, DIRECTIONS = YES
LE, EE, PE, PEEQ, S, 
*ELEMENT OUTPUT, ELSET=I_INDENTER.ALL_ELEMENTS, DIRECTIONS = YES
LE, EE, PE, PEEQ, S, 
*OUTPUT, HISTORY
*ENERGY OUTPUT
ALLFD, ALLWK
*ENERGY OUTPUT, ELSET=I_SAMPLE.ALL_ELEMENTS
ALLPD, ALLSE
*ENERGY OUTPUT, ELSET=I_INDENTER.ALL_ELEMENTS
ALLPD, ALLSE
*CONTACT OUTPUT, NSET=I_SAMPLE.SURFACE
CPRESS
*NODE OUTPUT, NSET=I_INDENTER.REF_NODE
U2, RF2, CF2
*NODE OUTPUT, NSET=I_INDENTER.TIP_NODE
U2
*NODE OUTPUT, NSET = I_SAMPLE.SURFACE
COOR1, COOR2, COOR3
*END STEP
**------------------------------------------------------------------------------
** STEP: LOADING2
**------------------------------------------------------------------------------
*STEP, NAME = LOADING2, NLGEOM = YES, INC=1000000
*STATIC
0.02, 1.0, 1e-08, 0.02
*BOUNDARY, OP=NEW
I_SAMPLE.AXIS, 1, 1
I_SAMPLE.BOTTOM, 1, 3
I_INDENTER.AXIS, 1, 1
I_INDENTER.REF_NODE, 4, 6 
I_INDENTER.REF_NODE, 2, 2, -0.4
*RESTART, WRITE, FREQUENCY = 0
*OUTPUT, FIELD, FREQUENCY = 99999
*NODE OUTPUT
COORD, U, 
*NODE OUTPUT, NSET=I_INDENTER.REF_NODE
U
*ELEMENT OUTPUT, ELSET=I_SAMPLE.ALL_ELEMENTS, DIRECTIONS = YES
LE, EE, PE, PEEQ, S, 
*ELEMENT OUTPUT, ELSET=I_INDENTER.ALL_ELEMENTS, DIRECTIONS = YES
LE, EE, PE, PEEQ, S, 
*OUTPUT, HISTORY
*ENERGY OUTPUT
ALLFD, ALLWK
*ENERGY OUTPUT, ELSET=I_SAMPLE.ALL_ELEMENTS
ALLPD, ALLSE
*ENERGY OUTPUT, ELSET=I_INDENTER.ALL_ELEMENTS
ALLPD, ALLSE
*CONTACT OUTPUT, NSET=I_SAMPLE.SURFACE
CPRESS
*NODE OUTPUT, NSET=I_INDENTER.REF_NODE
U2, RF2, CF2
*NODE OUTPUT, NSET=I_INDENTER.TIP_NODE
U2
*NODE OUTPUT, NSET = I_SAMPLE.SURFACE
COOR1, COOR2, COOR3
*END STEP
**------------------------------------------------------------------------------
** STEP: UNLOADING2
**------------------------------------------------------------------------------
*STEP, NAME = UNLOADING2, NLGEOM = YES, INC=1000000
*STATIC
0.02, 1.0, 1e-08, 0.02
*BOUNDARY, OP=NEW
I_SAMPLE.AXIS, 1, 1
I_SAMPLE.BOTTOM, 1, 3
I_INDENTER.AXIS, 1, 1
I_INDENTER.REF_NODE, 4, 6 
*CLOAD
I_INDENTER.REF_NODE, 2, 0.0
*RESTART, WRITE, FREQUENCY = 0
*OUTPUT, FIELD, FREQUENCY = 99999
*NODE OUTPUT
COORD, U, 
*NODE OUTPUT, NSET=I_INDENTER.REF_NODE
U
*ELEMENT OUTPUT, ELSET=I_SAMPLE.ALL_ELEMENTS, DIRECTIONS = YES
LE, EE, PE, PEEQ, S, 
*ELEMENT OUTPUT, ELSET=I_INDENTER.ALL_ELEMENTS, DIRECTIONS = YES
LE, EE, PE, PEEQ, S, 
*OUTPUT, HISTORY
*ENERGY OUTPUT
ALLFD, ALLWK
*ENERGY OUTPUT, ELSET=I_SAMPLE.ALL_ELEMENTS
ALLPD, ALLSE
*ENERGY OUTPUT, ELSET=I_INDENTER.ALL_ELEMENTS
ALLPD, ALLSE
*CONTACT OUTPUT, NSET=I_SAMPLE.SURFACE
CPRESS
*NODE OUTPUT, NSET=I_INDENTER.REF_NODE
U2, RF2, CF2
*NODE OUTPUT, NSET=I_INDENTER.TIP_NODE
U2
*NODE OUTPUT, NSET = I_SAMPLE.SURFACE
COOR1, COOR2, COOR3
*END STEP

