**------------------------------------------------------------------------------
**INDENTATION SIMULATION
**------------------------------------------------------------------------------
*HEADING
Abapy Indentation Simulation
*PREPRINT, ECHO=NO, MODEL=NO, HISTORY=NO, CONTACT=NO
**------------------------------------------------------------------------------
** SAMPLE DEFINITION
**------------------------------------------------------------------------------
*PART, NAME = P_SAMPLE
********************************************************************************
** NODES ***********************************************************************
********************************************************************************
*NODE
  1, 0.0, 0.0, 0.0
  2, 0.0, -1.0, 0.0
  3, 1.0, -1.0, 0.0
  4, 1.0, 0.0, 0.0
  5, 0.0, -2.0, 0.0
  6, 2.0, 0.0, 0.0
  7, 0.0, -3.0, 0.0
  8, 3.0, 0.0, 0.0
  9, 0.0, -0.06249999999987293, 0.0
  10, 0.0, -0.1249999999997731, 0.0
  11, 0.0, -0.1874999999995934, 0.0
  12, 0.0, -0.2499999999994109, 0.0
  13, 0.0, -0.3124999999992285, 0.0
  14, 0.0, -0.3749999999990461, 0.0
  15, 0.0, -0.4374999999988636, 0.0
  16, 0.0, -0.4999999999986921, 0.0
  17, 0.0, -0.562499999998846, 0.0
  18, 0.0, -0.6249999999990109, 0.0
  19, 0.0, -0.6874999999991758, 0.0
  20, 0.0, -0.7499999999993406, 0.0
** ... 1795 like lines cut
********************************************************************************
** NODE SETS *******************************************************************
********************************************************************************
*NSET, NSET=ALL_NODES
  1,2,3,4,5,6,7,8,9,10,11,12,13,14,15,
  16,17,18,19,20,21,22,23,24,25,26,27,28,
  29,30,31,32,33,34,35,36,37,38,39,40,41,
  42,43,44,45,46,47,48,49,50,51,52,53,54,
  55,56,57,58,59,60,61,62,63,64,65,66,67,
  68,69,70,71,72,73,74,75,76,77,78,79,80,
  81,82,83,84,85,86,87,88,89,90,91,92,93,
  94,95,96,97,98,99,100,101,102,103,104,
  105,106,107,108,109,110,111,112,113,
  114,115,116,117,118,119,120,121,122,
  123,124,125,126,127,128,129,130,131,
  132,133,134,135,136,137,138,139,140,
  141,142,143,144,145,146,147,148,149,
  150,151,152,153,154,155,156,157,158,
  159,160,161,162,163,164,165,166,167,
  168,169,170,171,172,173,174,175,176,
  177,178,179,180,181,182,183,184,185,
  186,187,188,189,190,191,192,193,194,
  195,196,197,198,199,200,201,202,203,
  204,205,206,207,208,209,210,211,212,
** ... 204 like lines cut
*NSET, NSET=SURFACE
  1,4,6,70,71,72,73,74,75,76,77,78,79,
  80,81,82,83,84,85,86,87,88,89,90,91,92,
  93,94,95,96,97,98,99,100,189,190,191,
  192,193,194,195,196,197,198,199,200,
  201,202,203,204,205,206,207,
*NSET, NSET=BOTTOM
  7,8,209,210,211,212,213,214,215,216,
  217,218,219,220,221,222,223,224,225,
  226,227,228,229,230,231,232,233,234,
  235,236,237,238,239,240,241,242,243,
  244,245,246,247,248,249,250,251,252,
  253,254,255,256,257,258,259,260,261,
  262,263,264,265,266,267,268,269,270,
  271,
*NSET, NSET=AXIS
  1,2,5,7,9,10,11,12,13,14,15,16,17,18,
  19,20,21,22,23,101,102,103,104,105,106,
  107,108,109,110,111,112,113,114,115,
  116,117,118,119,120,121,122,123,124,
  125,208
********************************************************************************
** ELEMENTS ********************************************************************
********************************************************************************
*ELEMENT, TYPE=CAX4R
  161, 1, 9, 273, 100
  162, 100, 273, 274, 99
  163, 99, 274, 275, 98
  164, 98, 275, 276, 97
  165, 97, 276, 277, 96
  166, 96, 277, 278, 95
  167, 95, 278, 279, 94
  168, 94, 279, 280, 93
  169, 93, 280, 281, 92
  170, 92, 281, 282, 91
  171, 91, 282, 283, 90
  172, 90, 283, 284, 89
  173, 89, 284, 285, 88
  174, 88, 285, 286, 87
  175, 87, 286, 287, 86
  176, 86, 287, 288, 85
  177, 85, 288, 289, 84
  178, 84, 289, 290, 83
  179, 83, 290, 291, 82
  180, 82, 291, 292, 81
** ... 1713 like lines cut
********************************************************************************
** ELEMENT SETS ****************************************************************
********************************************************************************
*ELSET, ELSET=CORE
  161,162,163,164,165,166,167,168,169,
  170,171,172,173,174,175,176,177,178,
  179,180,181,182,183,184,185,186,187,
  188,189,190,191,192,193,194,195,196,
  197,198,199,200,201,202,203,204,205,
  206,207,208,209,210,211,212,213,214,
  215,216,217,218,219,220,221,222,223,
  224,225,226,227,228,229,230,231,232,
  233,234,235,236,237,238,239,240,241,
  242,243,244,245,246,247,248,249,250,
  251,252,253,254,255,256,257,258,259,
  260,261,262,263,264,265,266,267,268,
  269,270,271,272,273,274,275,276,277,
  278,279,280,281,282,283,284,285,286,
  287,288,289,290,291,292,293,294,295,
  296,297,298,299,300,301,302,303,304,
  305,306,307,308,309,310,311,312,313,
  314,315,316,317,318,319,320,321,322,
  323,324,325,326,327,328,329,330,331,
  332,333,334,335,336,337,338,339,340,
** ... 37 like lines cut
*ELSET, ELSET=SHELL1
  673,674,675,676,677,678,679,680,681,
  682,683,684,685,686,687,688,689,690,
  691,692,693,694,695,696,697,698,699,
  700,701,702,703,704,705,706,707,708,
  709,710,711,712,713,714,715,716,717,
  718,719,720,721,722,723,724,725,726,
  727,728,729,730,731,732,733,734,735,
  736,737,738,739,740,741,742,743,744,
  745,746,747,748,749,750,751,752,753,
  754,755,756,757,758,759,760,761,762,
  763,764,765,766,767,768,769,770,771,
  772,773,774,775,776,777,778,779,780,
  781,782,783,784,785,786,787,788,789,
  790,791,792,793,794,795,796,797,798,
  799,800,801,802,803,804,805,806,807,
  808,809,810,811,812,813,814,815,816,
  817,818,819,820,821,822,823,824,825,
  826,827,828,829,830,831,832,833,834,
  835,836,837,838,839,840,841,842,843,
  844,845,846,847,848,849,850,851,852,
** ... 126 like lines cut
*ELSET, ELSET=SHELL2
  1766,1767,1768,1769,1770,1771,1772,
  1773,1774,1775,1776,1777,1778,1779,
  1780,1781,1782,1783,1784,1785,1786,
  1787,1788,1789,1790,1791,1792,1793,
  1794,1795,1796,1797,1798,1799,1800,
  1801,1802,1803,1804,1805,1806,1807,
  1808,1809,1810,1811,1812,1813,1814,
  1815,1816,1817,1818,1819,1820,1821,
  1822,1823,1824,1825,1826,1827,1828,
  1829,1830,1831,1832,1833,1834,1835,
  1836,1837,1838,1839,1840,1841,1842,
  1843,1844,1845,1846,1847,1848,1849,
  1850,1851,1852,1853,1854,1855,1856,
  1857,1858,1859,1860,1861,1862,1863,
  1864,1865,1866,1867,1868,1869,1870,
  1871,1872,1873,1874,1875,1876,1877,
  1878,1879,1880,1881,1882,1883,1884,
  1885,1886,1887,1888,1889,1890,1891,
  1892,1893,
*ELSET, ELSET=ALL_ELEMENTS
  161,162,163,164,165,166,167,168,169,
  170,171,172,173,174,175,176,177,178,
  179,180,181,182,183,184,185,186,187,
  188,189,190,191,192,193,194,195,196,
  197,198,199,200,201,202,203,204,205,
  206,207,208,209,210,211,212,213,214,
  215,216,217,218,219,220,221,222,223,
  224,225,226,227,228,229,230,231,232,
  233,234,235,236,237,238,239,240,241,
  242,243,244,245,246,247,248,249,250,
  251,252,253,254,255,256,257,258,259,
  260,261,262,263,264,265,266,267,268,
  269,270,271,272,273,274,275,276,277,
  278,279,280,281,282,283,284,285,286,
  287,288,289,290,291,292,293,294,295,
  296,297,298,299,300,301,302,303,304,
  305,306,307,308,309,310,311,312,313,
  314,315,316,317,318,319,320,321,322,
  323,324,325,326,327,328,329,330,331,
  332,333,334,335,336,337,338,339,340,
** ... 201 like lines cut
*ELSET, ELSET=_SURF_SURFACE_FACE1
  960,1034,1054,1070,1189,1206,1587,
*ELSET, ELSET=_SURF_SURFACE_FACE2
  1287,1294,1300,1318,1327,1340,1520,
*ELSET, ELSET=_SURF_SURFACE_FACE3
  1140,
*ELSET, ELSET=_SURF_SURFACE_FACE4
  161,162,163,164,165,166,167,168,169,
  170,171,172,173,174,175,176,177,178,
  179,180,181,182,183,184,185,186,187,
  188,189,190,191,192,720,751,1017,1448,
  1638,
*ELSET, ELSET=_MAT_SAMPLE_MAT
  161,162,163,164,165,166,167,168,169,
  170,171,172,173,174,175,176,177,178,
  179,180,181,182,183,184,185,186,187,
  188,189,190,191,192,193,194,195,196,
  197,198,199,200,201,202,203,204,205,
  206,207,208,209,210,211,212,213,214,
  215,216,217,218,219,220,221,222,223,
  224,225,226,227,228,229,230,231,232,
  233,234,235,236,237,238,239,240,241,
  242,243,244,245,246,247,248,249,250,
  251,252,253,254,255,256,257,258,259,
  260,261,262,263,264,265,266,267,268,
  269,270,271,272,273,274,275,276,277,
  278,279,280,281,282,283,284,285,286,
  287,288,289,290,291,292,293,294,295,
  296,297,298,299,300,301,302,303,304,
  305,306,307,308,309,310,311,312,313,
  314,315,316,317,318,319,320,321,322,
  323,324,325,326,327,328,329,330,331,
  332,333,334,335,336,337,338,339,340,
** ... 201 like lines cut
********************************************************************************
** SURFACES ********************************************************************
********************************************************************************
*SURFACE, TYPE=ELEMENT, NAME=SURFACE
  _SURF_SURFACE_FACE1, S1
  _SURF_SURFACE_FACE2, S2
  _SURF_SURFACE_FACE3, S3
  _SURF_SURFACE_FACE4, S4 
********************************************************************************
** SECTIONS ********************************************************************
********************************************************************************
*SOLID SECTION, ELSET=_MAT_SAMPLE_MAT, MATERIAL=SAMPLE_MAT
*END PART
**------------------------------------------------------------------------------
** INDENTER DEFINITION
**------------------------------------------------------------------------------
*PART, NAME = P_INDENTER
********************************************************************************
** NODES ***********************************************************************
********************************************************************************
*NODE
  1, 0.0, 0.0, 0.0
  2, 0.337095258423, 0.058529455188, 0.0
  3, 3.76588217925, 1.2862129122200001, 0.0
  4, 0.0, 3.9378318785300004, 0.0
  5, 0.04296550253738152, 0.0009234435781658724, 0.0
  6, 0.08585165263991633, 0.003692068816575578, 0.0
  7, 0.1285792444278296, 0.008300762376834081, 0.0
  8, 0.1710693648606506, 0.01474101252200011, 0.0
  9, 0.2132435394808687, 0.02300092483683935, 0.0
  10, 0.2550238773468861, 0.033065244195369485, 0.0
  11, 0.2963332148892655, 0.04491538293542163, 0.0
  12, 0.3831284413391275, 0.07501172091217834, 0.0
  13, 0.4291616242552688, 0.0914939866363616, 0.0
  14, 0.4751948071714032, 0.1079762523605424, 0.0
  15, 0.5212279900875458, 0.1244585180847261, 0.0
  16, 0.5672611730037005, 0.1409407838089142, 0.0
  17, 0.6132943559198416, 0.1574230495330974, 0.0
  18, 0.659327538836026, 0.1739053152572961, 0.0
  19, 0.7053607217521782, 0.1903875809814832, 0.0
  20, 0.7513939046683398, 0.2068698467056738, 0.0
** ... 472 like lines cut
********************************************************************************
** NODE SETS *******************************************************************
********************************************************************************
*NSET, NSET=ALL_NODES
  1,2,3,4,5,6,7,8,9,10,11,12,13,14,15,
  16,17,18,19,20,21,22,23,24,25,26,27,28,
  29,30,31,32,33,34,35,36,37,38,39,40,41,
  42,43,44,45,46,47,48,49,50,51,52,53,54,
  55,56,57,58,59,60,61,62,63,64,65,66,67,
  68,69,70,71,72,73,74,75,76,77,78,79,80,
  81,82,83,84,85,86,87,88,89,90,91,92,93,
  94,95,96,97,98,99,100,101,102,103,104,
  105,106,107,108,109,110,111,112,113,
  114,115,116,117,118,119,120,121,122,
  123,124,125,126,127,128,129,130,131,
  132,133,134,135,136,137,138,139,140,
  141,142,143,144,145,146,147,148,149,
  150,151,152,153,154,155,156,157,158,
  159,160,161,162,163,164,165,166,167,
  168,169,170,171,172,173,174,175,176,
  177,178,179,180,181,182,183,184,185,
  186,187,188,189,190,191,192,193,194,
  195,196,197,198,199,200,201,202,203,
  204,205,206,207,208,209,210,211,212,
** ... 32 like lines cut
*NSET, NSET=SURFACE
  1,2,3,5,6,7,8,9,10,11,12,13,14,15,16,
  17,18,19,20,21,22,23,24,25,26,27,28,29,
  30,31,32,33,34,35,36,
*NSET, NSET=BOTTOM
  3,4,37,38,39,40,41,42,43,44,45,
*NSET, NSET=AXIS
  1,4,46,47,48,49,50,51,52,53,54,55,56,
  57,58,59,60,61,62,63,64,65,66,67,68,69,
  70,71,72,73,74,75,76,77,78,
*NSET, NSET=TIP_NODE
  1,
*NSET, NSET=REF_NODE
  4,
*NSET, NSET=RIGID_NODES
  3,4,37,38,39,40,41,42,43,44,45
********************************************************************************
** ELEMENTS ********************************************************************
********************************************************************************
*ELEMENT, TYPE=CAX4R
  79, 480, 461, 453, 447
  80, 262, 323, 318, 290
  81, 251, 273, 318, 274
  82, 487, 471, 461, 480
  83, 34, 35, 100, 91
  84, 435, 408, 409, 425
  85, 362, 339, 295, 338
  86, 273, 183, 135, 220
  87, 362, 338, 376, 332
  88, 481, 486, 489, 474
  89, 299, 347, 311, 264
  90, 329, 355, 399, 354
  91, 481, 467, 449, 468
  92, 488, 482, 471, 487
  93, 223, 170, 186, 222
  94, 172, 139, 166, 97
  95, 104, 166, 139, 101
  96, 259, 223, 222, 288
  97, 356, 335, 366, 392
  98, 390, 373, 395, 405
** ... 432 like lines cut
********************************************************************************
** ELEMENT SETS ****************************************************************
********************************************************************************
*ELSET, ELSET=ALL_ELEMENTS
  79,80,81,82,83,84,85,86,87,88,89,90,
  91,92,93,94,95,96,97,98,99,100,101,102,
  103,104,105,106,107,108,109,110,111,
  112,113,114,115,116,117,118,119,120,
  121,122,123,124,125,126,127,128,129,
  130,131,132,133,134,135,136,137,138,
  139,140,141,142,143,144,145,146,147,
  148,149,150,151,152,153,154,155,156,
  157,158,159,160,161,162,163,164,165,
  166,167,168,169,170,171,172,173,174,
  175,176,177,178,179,180,181,182,183,
  184,185,186,187,188,189,190,191,192,
  193,194,195,196,197,198,199,200,201,
  202,203,204,205,206,207,208,209,210,
  211,212,213,214,215,216,217,218,219,
  220,221,222,223,224,225,226,227,228,
  229,230,231,232,233,234,235,236,237,
  238,239,240,241,242,243,244,245,246,
  247,248,249,250,251,252,253,254,255,
  256,257,258,259,260,261,262,263,264,
** ... 30 like lines cut
*ELSET, ELSET=_SURF_SURFACE_FACE1
  83,105,150,155,157,231,412,440,468,
  507,509,
*ELSET, ELSET=_SURF_SURFACE_FACE2
  142,191,261,287,329,339,351,413,446,
*ELSET, ELSET=_SURF_SURFACE_FACE3
  127,234,251,271,301,318,340,359,431,
  433,458,
*ELSET, ELSET=_SURF_SURFACE_FACE4
  121,237,266,
*ELSET, ELSET=_MAT_INDENTER_MAT
  79,80,81,82,83,84,85,86,87,88,89,90,
  91,92,93,94,95,96,97,98,99,100,101,102,
  103,104,105,106,107,108,109,110,111,
  112,113,114,115,116,117,118,119,120,
  121,122,123,124,125,126,127,128,129,
  130,131,132,133,134,135,136,137,138,
  139,140,141,142,143,144,145,146,147,
  148,149,150,151,152,153,154,155,156,
  157,158,159,160,161,162,163,164,165,
  166,167,168,169,170,171,172,173,174,
  175,176,177,178,179,180,181,182,183,
  184,185,186,187,188,189,190,191,192,
  193,194,195,196,197,198,199,200,201,
  202,203,204,205,206,207,208,209,210,
  211,212,213,214,215,216,217,218,219,
  220,221,222,223,224,225,226,227,228,
  229,230,231,232,233,234,235,236,237,
  238,239,240,241,242,243,244,245,246,
  247,248,249,250,251,252,253,254,255,
  256,257,258,259,260,261,262,263,264,
** ... 30 like lines cut
********************************************************************************
** SURFACES ********************************************************************
********************************************************************************
*SURFACE, TYPE=ELEMENT, NAME=SURFACE
  _SURF_SURFACE_FACE1, S1
  _SURF_SURFACE_FACE2, S2
  _SURF_SURFACE_FACE3, S3
  _SURF_SURFACE_FACE4, S4 
********************************************************************************
** SECTIONS ********************************************************************
********************************************************************************
*SOLID SECTION, ELSET=_MAT_INDENTER_MAT, MATERIAL=INDENTER_MAT
*RIGID BODY, REF NODE = REF_NODE, PIN NSET=RIGID_NODES
*END PART
**------------------------------------------------------------------------------
** ASSEMBLY
**------------------------------------------------------------------------------
*ASSEMBLY, NAME = ASSEMBLY
*INSTANCE, NAME = I_SAMPLE, PART = P_SAMPLE
*END INSTANCE
*INSTANCE, NAME = I_INDENTER, PART= P_INDENTER
*END INSTANCE
*END ASSEMBLY
**------------------------------------------------------------------------------
** SURFACE INTERACTIONS
**------------------------------------------------------------------------------
*SURFACE INTERACTION, NAME = SURF_INT
*FRICTION
0.0,
*SURFACE BEHAVIOR, PRESSURE-OVERCLOSURE = HARD
*CONTACT PAIR, INTERACTION = SURF_INT, SUPPLEMENTARY CONSTRAINTS = NO, TYPE= NODE TO SURFACE
I_SAMPLE.SURFACE, I_INDENTER.SURFACE
**------------------------------------------------------------------------------
** MATERIALS
**------------------------------------------------------------------------------
********************************************************************************
** ARGIOPE MATERIAL Hollomon
********************************************************************************
*MATERIAL, NAME = SAMPLE_MAT
*ELASTIC
  1.0, 0.3
*PLASTIC
0.01,0.0
0.010211532151708518,0.0005111400683947154
0.01042753888853768,0.0010700310654396788
0.010648114862349341,0.0016803525320713206
0.010873356727196562,0.002346054757463729
0.01110336318167638,0.0030713784475916734
0.011338235012178493,0.0038608758173508447
0.011578075137048791,0.00471943320915765
0.011822988651687072,0.005652295348389767
0.012073082874598748,0.006665091354005092
0.012328467394420662,0.007763862631229811
0.012589254117941673,0.008955092782377166
0.012855557319139024,0.010245739681692574
0.013127493689251991,0.011643269870665116
0.013405182387914737,0.01315569544155213
0.013688745095370809,0.01479161358898721
0.01397830606579213,0.016560249022542023
0.014273992181725854,0.018471499447051433
0.014575933009692956,0.02053598433245836
0.014884260856962914,0.022765097210961767
** ... 80 like lines cut
********************************************************************************
** ARGIOPE MATERIAL Hollomon
********************************************************************************
*MATERIAL, NAME = INDENTER_MAT
*ELASTIC
  1.0, 0.3
*PLASTIC
0.01,0.0
0.010211532151708518,0.0005111400683947154
0.01042753888853768,0.0010700310654396788
0.010648114862349341,0.0016803525320713206
0.010873356727196562,0.002346054757463729
0.01110336318167638,0.0030713784475916734
0.011338235012178493,0.0038608758173508447
0.011578075137048791,0.00471943320915765
0.011822988651687072,0.005652295348389767
0.012073082874598748,0.006665091354005092
0.012328467394420662,0.007763862631229811
0.012589254117941673,0.008955092782377166
0.012855557319139024,0.010245739681692574
0.013127493689251991,0.011643269870665116
0.013405182387914737,0.01315569544155213
0.013688745095370809,0.01479161358898721
0.01397830606579213,0.016560249022542023
0.014273992181725854,0.018471499447051433
0.014575933009692956,0.02053598433245836
0.014884260856962914,0.022765097210961767
** ... 80 like lines cut
**------------------------------------------------------------------------------
** STEPS
**------------------------------------------------------------------------------
**------------------------------------------------------------------------------
** STEP: LOADING1
**------------------------------------------------------------------------------
*STEP, NAME = LOADING1, NLGEOM = YES, INC=1000000
*STATIC
0.02, 1.0, 1e-08, 0.02
*BOUNDARY, OP=NEW
I_SAMPLE.AXIS, 1, 1
I_SAMPLE.BOTTOM, 1, 3
I_INDENTER.AXIS, 1, 1
I_INDENTER.REF_NODE, 4, 6 
I_INDENTER.REF_NODE, 2, 2, -0.2
*RESTART, WRITE, FREQUENCY = 0
*OUTPUT, FIELD, FREQUENCY = 99999
*NODE OUTPUT
COORD, U, 
*NODE OUTPUT, NSET=I_INDENTER.REF_NODE
U
*ELEMENT OUTPUT, ELSET=I_SAMPLE.ALL_ELEMENTS, DIRECTIONS = YES
LE, EE, PE, PEEQ, S, 
*ELEMENT OUTPUT, ELSET=I_INDENTER.ALL_ELEMENTS, DIRECTIONS = YES
LE, EE, PE, PEEQ, S, 
*OUTPUT, HISTORY
*ENERGY OUTPUT
ALLFD, ALLWK
*ENERGY OUTPUT, ELSET=I_SAMPLE.ALL_ELEMENTS
ALLPD, ALLSE
*ENERGY OUTPUT, ELSET=I_INDENTER.ALL_ELEMENTS
ALLPD, ALLSE
*CONTACT OUTPUT, NSET=I_SAMPLE.SURFACE
CPRESS
*NODE OUTPUT, NSET=I_INDENTER.REF_NODE
U2, RF2, CF2
*NODE OUTPUT, NSET=I_INDENTER.TIP_NODE
U2
*NODE OUTPUT, NSET = I_SAMPLE.SURFACE
COOR1, COOR2, COOR3
*END STEP
**------------------------------------------------------------------------------
** STEP: UNLOADING1
**------------------------------------------------------------------------------
*STEP, NAME = UNLOADING1, NLGEOM = YES, INC=1000000
*STATIC
0.02, 1.0, 1e-08, 0.02
*BOUNDARY, OP=NEW
I_SAMPLE.AXIS, 1, 1
I_SAMPLE.BOTTOM, 1, 3
I_INDENTER.AXIS, 1, 1
I_INDENTER.REF_NODE, 4, 6 
*CLOAD
I_INDENTER.REF_NODE, 2, 0.0
*RESTART, WRITE, FREQUENCY = 0
*OUTPUT, FIELD, FREQUENCY = 99999
*NODE OUTPUT
COORD, U, 
*NODE OUTPUT, NSET=I_INDENTER.REF_NODE
U
*ELEMENT OUTPUT, ELSET=I_SAMPLE.ALL_ELEMENTS, DIRECTIONS = YES
LE, EE, PE, PEEQ, S, 
*ELEMENT OUTPUT, ELSET=I_INDENTER.ALL_ELEMENTS, DIRECTIONS = YES
LE, EE, PE, PEEQ, S, 
*OUTPUT, HISTORY
*ENERGY OUTPUT
ALLFD, ALLWK
*ENERGY OUTPUT, ELSET=I_SAMPLE.ALL_ELEMENTS
ALLPD, ALLSE
*ENERGY OUTPUT, ELSET=I_INDENTER.ALL_ELEMENTS
ALLPD, ALLSE
*CONTACT OUTPUT, NSET=I_SAMPLE.SURFACE
CPRESS
*NODE OUTPUT, NSET=I_INDENTER.REF_NODE
U2, RF2, CF2
*NODE OUTPUT, NSET=I_INDENTER.TIP_NODE
U2
*NODE OUTPUT, NSET = I_SAMPLE.SURFACE
COOR1, COOR2, COOR3
*END STEP
**------------------------------------------------------------------------------
** STEP: RELOADING1
**------------------------------------------------------------------------------
*STEP, NAME = RELOADING1, NLGEOM = YES, INC=1000000
*STATIC
0.02, 1.0, 1e-08, 0.02
*BOUNDARY, OP=NEW
I_SAMPLE.AXIS, 1, 1
I_SAMPLE.BOTTOM, 1, 3
I_INDENTER.AXIS, 1, 1
I_INDENTER.REF_NODE, 4, 6 
I_INDENTER.REF_NODE, 2, 2, -0.2
*RESTART, WRITE, FREQUENCY = 0
*OUTPUT, FIELD, FREQUENCY = 99999
*NODE OUTPUT
COORD, U, 
*NODE OUTPUT, NSET=I_INDENTER.REF_NODE
U
*ELEMENT OUTPUT, ELSET=I_SAMPLE.ALL_ELEMENTS, DIRECTIONS = YES
LE, EE, PE, PEEQ, S, 
*ELEMENT OUTPUT, ELSET=I_INDENTER.ALL_ELEMENTS, DIRECTIONS = YES
LE, EE, PE, PEEQ, S, 
*OUTPUT, HISTORY
*ENERGY OUTPUT
ALLFD, ALLWK
*ENERGY OUTPUT, ELSET=I_SAMPLE.ALL_ELEMENTS
ALLPD, ALLSE
*ENERGY OUTPUT, ELSET=I_INDENTER.ALL_ELEMENTS
ALLPD, ALLSE
*CONTACT OUTPUT, NSET=I_SAMPLE.SURFACE
CPRESS
*NODE OUTPUT, NSET=I_INDENTER.REF_NODE
U2, RF2, CF2
*NODE OUTPUT, NSET=I_INDENTER.TIP_NODE
U2
*NODE OUTPUT, NSET = I_SAMPLE.SURFACE
COOR1, COOR2, COOR3
*END STEP
**------------------------------------------------------------------------------
** STEP: LOADING2
**------------------------------------------------------------------------------
*STEP, NAME = LOADING2, NLGEOM = YES, INC=1000000
*STATIC
0.02, 1.0, 1e-08, 0.02
*BOUNDARY, OP=NEW
I_SAMPLE.AXIS, 1, 1
I_SAMPLE.BOTTOM, 1, 3
I_INDENTER.AXIS, 1, 1
I_INDENTER.REF_NODE, 4, 6 
I_INDENTER.REF_NODE, 2, 2, -0.4
*RESTART, WRITE, FREQUENCY = 0
*OUTPUT, FIELD, FREQUENCY = 99999
*NODE OUTPUT
COORD, U, 
*NODE OUTPUT, NSET=I_INDENTER.REF_NODE
U
*ELEMENT OUTPUT, ELSET=I_SAMPLE.ALL_ELEMENTS, DIRECTIONS = YES
LE, EE, PE, PEEQ, S, 
*ELEMENT OUTPUT, ELSET=I_INDENTER.ALL_ELEMENTS, DIRECTIONS = YES
LE, EE, PE, PEEQ, S, 
*OUTPUT, HISTORY
*ENERGY OUTPUT
ALLFD, ALLWK
*ENERGY OUTPUT, ELSET=I_SAMPLE.ALL_ELEMENTS
ALLPD, ALLSE
*ENERGY OUTPUT, ELSET=I_INDENTER.ALL_ELEMENTS
ALLPD, ALLSE
*CONTACT OUTPUT, NSET=I_SAMPLE.SURFACE
CPRESS
*NODE OUTPUT, NSET=I_INDENTER.REF_NODE
U2, RF2, CF2
*NODE OUTPUT, NSET=I_INDENTER.TIP_NODE
U2
*NODE OUTPUT, NSET = I_SAMPLE.SURFACE
COOR1, COOR2, COOR3
*END STEP
**------------------------------------------------------------------------------
** STEP: UNLOADING2
**------------------------------------------------------------------------------
*STEP, NAME = UNLOADING2, NLGEOM = YES, INC=1000000
*STATIC
0.02, 1.0, 1e-08, 0.02
*BOUNDARY, OP=NEW
I_SAMPLE.AXIS, 1, 1
I_SAMPLE.BOTTOM, 1, 3
I_INDENTER.AXIS, 1, 1
I_INDENTER.REF_NODE, 4, 6 
*CLOAD
I_INDENTER.REF_NODE, 2, 0.0
*RESTART, WRITE, FREQUENCY = 0
*OUTPUT, FIELD, FREQUENCY = 99999
*NODE OUTPUT
COORD, U, 
*NODE OUTPUT, NSET=I_INDENTER.REF_NODE
U
*ELEMENT OUTPUT, ELSET=I_SAMPLE.ALL_ELEMENTS, DIRECTIONS = YES
LE, EE, PE, PEEQ, S, 
*ELEMENT OUTPUT, ELSET=I_INDENTER.ALL_ELEMENTS, DIRECTIONS = YES
LE, EE, PE, PEEQ, S, 
*OUTPUT, HISTORY
*ENERGY OUTPUT
ALLFD, ALLWK
*ENERGY OUTPUT, ELSET=I_SAMPLE.ALL_ELEMENTS
ALLPD, ALLSE
*ENERGY OUTPUT, ELSET=I_INDENTER.ALL_ELEMENTS
ALLPD, ALLSE
*CONTACT OUTPUT, NSET=I_SAMPLE.SURFACE
CPRESS
*NODE OUTPUT, NSET=I_INDENTER.REF_NODE
U2, RF2, CF2
*NODE OUTPUT, NSET=I_INDENTER.TIP_NODE
U2
*NODE OUTPUT, NSET = I_SAMPLE.SURFACE
COOR1, COOR2, COOR3
*END STEP

