**------------------------------------------------------------------------------
**INDENTATION SIMULATION
**------------------------------------------------------------------------------
*HEADING
Abapy Indentation Simulation
*PREPRINT, ECHO=NO, MODEL=NO, HISTORY=NO, CONTACT=NO
**------------------------------------------------------------------------------
** SAMPLE DEFINITION
**------------------------------------------------------------------------------
*PART, NAME = P_SAMPLE
********************************************************************************
** NODES ***********************************************************************
********************************************************************************
*NODE
  1, 0.0, 0.0, 0.0
  2, 0.0, -1.0, 0.0
  3, 1.0, -1.0, 0.0
  4, 1.0, 0.0, 0.0
  5, 0.0, -10.0, 0.0
  6, 1.0, -10.0, 0.0
  7, 2.0, 0.0, 0.0
  8, 11.0, 0.0, 0.0
  9, 0.0, -0.1249999999997731, 0.0
  10, 0.0, -0.2499999999994109, 0.0
  11, 0.0, -0.3749999999990461, 0.0
  12, 0.0, -0.4999999999986921, 0.0
  13, 0.0, -0.6249999999990109, 0.0
  14, 0.0, -0.7499999999993406, 0.0
  15, 0.0, -0.8749999999996703, 0.0
  16, 0.06249999999987293, -1.0, 0.0
  17, 0.1249999999997731, -1.0, 0.0
  18, 0.1874999999995934, -1.0, 0.0
  19, 0.2499999999994109, -1.0, 0.0
  20, 0.3124999999992285, -1.0, 0.0
** ... 418 like lines cut
********************************************************************************
** NODE SETS *******************************************************************
********************************************************************************
*NSET, NSET=ALL_NODES
  1,2,3,4,5,6,7,8,9,10,11,12,13,14,15,
  16,17,18,19,20,21,22,23,24,25,26,27,28,
  29,30,31,32,33,34,35,36,37,38,39,40,41,
  42,43,44,45,46,47,48,49,50,51,52,53,54,
  55,56,57,58,59,60,61,62,63,64,65,66,67,
  68,69,70,71,72,73,74,75,76,77,78,79,80,
  81,82,83,84,85,86,87,88,89,90,91,92,93,
  94,95,96,97,98,99,100,101,102,103,104,
  105,106,107,108,109,110,111,112,113,
  114,115,116,117,118,119,120,121,122,
  123,124,125,126,127,128,129,130,131,
  132,133,134,135,136,137,138,139,140,
  141,142,143,144,145,146,147,148,149,
  150,151,152,153,154,155,156,157,158,
  159,160,161,162,163,164,165,166,167,
  168,169,170,171,172,173,174,175,176,
  177,178,179,180,181,182,183,184,185,
  186,187,188,189,190,191,192,193,194,
  195,196,197,198,199,200,201,202,203,
  204,205,206,207,208,209,210,211,212,
** ... 26 like lines cut
*NSET, NSET=SURFACE
  1,4,7,8,38,39,40,41,42,43,44,45,46,
  47,48,49,50,51,52,91,92,93,94,95,96,97,
*NSET, NSET=BOTTOM
  5,6,8,60,61,62,63,64,65,66,67,68,69,
  70,71,72,73,74,108,109,110,111,112,113,
  114,115,116,117,
*NSET, NSET=AXIS
  1,2,5,9,10,11,12,13,14,15,53,54,55,
  56,57,58,59
********************************************************************************
** ELEMENTS ********************************************************************
********************************************************************************
*ELEMENT, TYPE=CAX3
  68, 343, 359, 345
  69, 341, 344, 350
  70, 358, 365, 368
  71, 337, 352, 347
  72, 333, 351, 345
*ELEMENT, TYPE=CAX4
  73, 1, 9, 118, 52
  74, 52, 118, 119, 51
  75, 51, 119, 120, 50
  76, 50, 120, 121, 49
  77, 49, 121, 122, 48
  78, 48, 122, 123, 47
  79, 47, 123, 124, 46
  80, 46, 124, 125, 45
  81, 45, 125, 126, 44
  82, 44, 126, 127, 43
  83, 43, 127, 128, 42
  84, 42, 128, 129, 41
  85, 41, 129, 130, 40
  86, 40, 130, 131, 39
  87, 39, 131, 132, 38
  88, 38, 132, 37, 4
  89, 9, 10, 133, 118
  90, 118, 133, 134, 119
  91, 119, 134, 135, 120
  92, 120, 135, 136, 121
** ... 376 like lines cut
********************************************************************************
** ELEMENT SETS ****************************************************************
********************************************************************************
*ELSET, ELSET=FIBRE
  73,74,75,76,77,78,79,80,81,82,83,84,
  85,86,87,88,89,90,91,92,93,94,95,96,97,
  98,99,100,101,102,103,104,105,106,107,
  108,109,110,111,112,113,114,115,116,
  117,118,119,120,121,122,123,124,125,
  126,127,128,129,130,131,132,133,134,
  135,136,137,138,139,140,141,142,143,
  144,145,146,147,148,149,150,151,152,
  153,154,155,156,157,158,159,160,161,
  162,163,164,165,166,167,168,169,170,
  171,172,173,174,175,176,177,178,179,
  180,181,182,183,184,185,186,187,188,
  189,190,191,192,193,194,195,196,197,
  198,199,200,201,202,203,204,205,206,
  207,208,209,210,211,212,213,214,215,
  216,217,218,219,220,221,222,223,224,
  225,226,227,228,229,230,231,232,233,
  234,235,236,237,238,239,240,241,242,
  243,244,245,246,247,248,249,250,251,
  252,253,254,255,256,257,258,259,260,
** ... 8 like lines cut
*ELSET, ELSET=MATRIX
  68,69,70,71,72,329,330,331,332,333,
  334,335,336,337,338,339,340,341,342,
  343,344,345,346,347,348,349,350,351,
  352,353,354,355,356,357,358,359,360,
  361,362,363,364,365,366,367,368,369,
  370,371,372,373,374,375,376,377,378,
  379,380,381,382,383,384,385,386,387,
  388,389,390,391,392,393,394,395,396,
  397,398,399,400,401,402,403,404,405,
  406,407,408,409,410,411,412,413,414,
  415,416,417,418,419,420,421,422,423,
  424,425,426,427,428,429,430,431,432,
  433,434,435,436,437,438,439,440,441,
  442,443,444,445,446,447,448,449,450,
  451,452,453,454,455,456,457,458,459,
  460,461,462,463,464,465,466,467,468,
*ELSET, ELSET=ALL_ELEMENTS
  68,69,70,71,72,73,74,75,76,77,78,79,
  80,81,82,83,84,85,86,87,88,89,90,91,92,
  93,94,95,96,97,98,99,100,101,102,103,
  104,105,106,107,108,109,110,111,112,
  113,114,115,116,117,118,119,120,121,
  122,123,124,125,126,127,128,129,130,
  131,132,133,134,135,136,137,138,139,
  140,141,142,143,144,145,146,147,148,
  149,150,151,152,153,154,155,156,157,
  158,159,160,161,162,163,164,165,166,
  167,168,169,170,171,172,173,174,175,
  176,177,178,179,180,181,182,183,184,
  185,186,187,188,189,190,191,192,193,
  194,195,196,197,198,199,200,201,202,
  203,204,205,206,207,208,209,210,211,
  212,213,214,215,216,217,218,219,220,
  221,222,223,224,225,226,227,228,229,
  230,231,232,233,234,235,236,237,238,
  239,240,241,242,243,244,245,246,247,
  248,249,250,251,252,253,254,255,256,
** ... 24 like lines cut
*ELSET, ELSET=_SURF_SURFACE_FACE2
  391,402,413,424,435,446,457,468,
*ELSET, ELSET=_SURF_SURFACE_FACE4
  73,74,75,76,77,78,79,80,81,82,83,84,
  85,86,87,88,
*ELSET, ELSET=_MAT_FIBRE_MAT
  73,74,75,76,77,78,79,80,81,82,83,84,
  85,86,87,88,89,90,91,92,93,94,95,96,97,
  98,99,100,101,102,103,104,105,106,107,
  108,109,110,111,112,113,114,115,116,
  117,118,119,120,121,122,123,124,125,
  126,127,128,129,130,131,132,133,134,
  135,136,137,138,139,140,141,142,143,
  144,145,146,147,148,149,150,151,152,
  153,154,155,156,157,158,159,160,161,
  162,163,164,165,166,167,168,169,170,
  171,172,173,174,175,176,177,178,179,
  180,181,182,183,184,185,186,187,188,
  189,190,191,192,193,194,195,196,197,
  198,199,200,201,202,203,204,205,206,
  207,208,209,210,211,212,213,214,215,
  216,217,218,219,220,221,222,223,224,
  225,226,227,228,229,230,231,232,233,
  234,235,236,237,238,239,240,241,242,
  243,244,245,246,247,248,249,250,251,
  252,253,254,255,256,257,258,259,260,
** ... 8 like lines cut
*ELSET, ELSET=_MAT_MATRIX_MAT
  68,69,70,71,72,329,330,331,332,333,
  334,335,336,337,338,339,340,341,342,
  343,344,345,346,347,348,349,350,351,
  352,353,354,355,356,357,358,359,360,
  361,362,363,364,365,366,367,368,369,
  370,371,372,373,374,375,376,377,378,
  379,380,381,382,383,384,385,386,387,
  388,389,390,391,392,393,394,395,396,
  397,398,399,400,401,402,403,404,405,
  406,407,408,409,410,411,412,413,414,
  415,416,417,418,419,420,421,422,423,
  424,425,426,427,428,429,430,431,432,
  433,434,435,436,437,438,439,440,441,
  442,443,444,445,446,447,448,449,450,
  451,452,453,454,455,456,457,458,459,
  460,461,462,463,464,465,466,467,468
********************************************************************************
** SURFACES ********************************************************************
********************************************************************************
*SURFACE, TYPE=ELEMENT, NAME=SURFACE
  _SURF_SURFACE_FACE2, S2
  _SURF_SURFACE_FACE4, S4 
********************************************************************************
** SECTIONS ********************************************************************
********************************************************************************
*SOLID SECTION, ELSET=_MAT_FIBRE_MAT, MATERIAL=FIBRE_MAT
*SOLID SECTION, ELSET=_MAT_MATRIX_MAT, MATERIAL=MATRIX_MAT
*END PART
**------------------------------------------------------------------------------
** INDENTER DEFINITION
**------------------------------------------------------------------------------
*PART, NAME = P_INDENTER
********************************************************************************
** NODES ***********************************************************************
********************************************************************************
*NODE
  1, 0.0, 0.0, 0.0
  2, 0.337095258423, 0.058529455188, 0.0
  3, 2.82441163444, 0.949117653802, 0.0
  4, 0.0, 2.93783187853, 0.0
  5, 0.08585165263991633, 0.003692068816575578, 0.0
  6, 0.1710693648606506, 0.01474101252200011, 0.0
  7, 0.2550238773468861, 0.033065244195369485, 0.0
  8, 0.4231471102233749, 0.08934047883631252, 0.0
  9, 0.5091989620237566, 0.1201515024846275, 0.0
  10, 0.5952508138241621, 0.1509625261329509, 0.0
  11, 0.6813026656245245, 0.18177354978125895, 0.0
  12, 0.767354517424832, 0.2125845734295473, 0.0
  13, 0.8534063692251896, 0.2433955970778537, 0.0
  14, 0.9394582210254774, 0.274206620726135, 0.0
  15, 1.030341126580279, 0.306747412047771, 0.0
  16, 1.13891521383803, 0.3456225634838256, 0.0
  17, 1.269238061188395, 0.3922848984320902, 0.0
  18, 1.4256730613330209, 0.4482967376666626, 0.0
  19, 1.6134591350683238, 0.5155338864046631, 0.0
  20, 1.838886306702919, 0.5962484994070464, 0.0
** ... 160 like lines cut
********************************************************************************
** NODE SETS *******************************************************************
********************************************************************************
*NSET, NSET=ALL_NODES
  1,2,3,4,5,6,7,8,9,10,11,12,13,14,15,
  16,17,18,19,20,21,22,23,24,25,26,27,28,
  29,30,31,32,33,34,35,36,37,38,39,40,41,
  42,43,44,45,46,47,48,49,50,51,52,53,54,
  55,56,57,58,59,60,61,62,63,64,65,66,67,
  68,69,70,71,72,73,74,75,76,77,78,79,80,
  81,82,83,84,85,86,87,88,89,90,91,92,93,
  94,95,96,97,98,99,100,101,102,103,104,
  105,106,107,108,109,110,111,112,113,
  114,115,116,117,118,119,120,121,122,
  123,124,125,126,127,128,129,130,131,
  132,133,134,135,136,137,138,139,140,
  141,142,143,144,145,146,147,148,149,
  150,151,152,153,154,155,156,157,158,
  159,160,161,162,163,164,165,166,167,
  168,169,170,171,172,173,174,175,176,
  177,178,179,180,
*NSET, NSET=SURFACE
  1,2,3,5,6,7,8,9,10,11,12,13,14,15,16,
  17,18,19,20,21,22,
*NSET, NSET=BOTTOM
  3,4,23,24,25,26,27,28,29,
*NSET, NSET=AXIS
  1,4,30,31,32,33,34,35,36,37,38,39,40,
  41,42,43,44,45,46,
*NSET, NSET=TIP_NODE
  1,
*NSET, NSET=REF_NODE
  4,
*NSET, NSET=RIGID_NODES
  3,4,23,24,25,26,27,28,29
********************************************************************************
** ELEMENTS ********************************************************************
********************************************************************************
*ELEMENT, TYPE=CAX4
  47, 85, 62, 73, 64
  48, 132, 103, 92, 66
  49, 57, 60, 72, 80
  50, 76, 146, 124, 111
  51, 156, 160, 166, 153
  52, 146, 155, 141, 124
  53, 57, 80, 105, 83
  54, 105, 80, 72, 108
  55, 21, 22, 60, 57
  56, 166, 175, 180, 173
  57, 31, 55, 58, 30
  58, 34, 49, 82, 33
  59, 19, 20, 83, 51
  60, 142, 145, 121, 156
  61, 76, 65, 92, 103
  62, 146, 162, 171, 155
  63, 129, 99, 77, 123
  64, 129, 108, 54, 99
  65, 137, 130, 113, 133
  66, 151, 166, 160, 169
** ... 136 like lines cut
********************************************************************************
** ELEMENT SETS ****************************************************************
********************************************************************************
*ELSET, ELSET=ALL_ELEMENTS
  47,48,49,50,51,52,53,54,55,56,57,58,
  59,60,61,62,63,64,65,66,67,68,69,70,71,
  72,73,74,75,76,77,78,79,80,81,82,83,84,
  85,86,87,88,89,90,91,92,93,94,95,96,97,
  98,99,100,101,102,103,104,105,106,107,
  108,109,110,111,112,113,114,115,116,
  117,118,119,120,121,122,123,124,125,
  126,127,128,129,130,131,132,133,134,
  135,136,137,138,139,140,141,142,143,
  144,145,146,147,148,149,150,151,152,
  153,154,155,156,157,158,159,160,161,
  162,163,164,165,166,167,168,169,170,
  171,172,173,174,175,176,177,178,179,
  180,181,182,183,184,185,186,187,188,
  189,190,191,192,193,194,195,196,197,
  198,199,200,201,202,
*ELSET, ELSET=_SURF_SURFACE_FACE1
  55,59,67,76,121,
*ELSET, ELSET=_SURF_SURFACE_FACE2
  107,137,139,162,170,178,
*ELSET, ELSET=_SURF_SURFACE_FACE3
  69,71,143,167,173,
*ELSET, ELSET=_SURF_SURFACE_FACE4
  132,147,172,191,
*ELSET, ELSET=_MAT_INDENTER_MAT
  47,48,49,50,51,52,53,54,55,56,57,58,
  59,60,61,62,63,64,65,66,67,68,69,70,71,
  72,73,74,75,76,77,78,79,80,81,82,83,84,
  85,86,87,88,89,90,91,92,93,94,95,96,97,
  98,99,100,101,102,103,104,105,106,107,
  108,109,110,111,112,113,114,115,116,
  117,118,119,120,121,122,123,124,125,
  126,127,128,129,130,131,132,133,134,
  135,136,137,138,139,140,141,142,143,
  144,145,146,147,148,149,150,151,152,
  153,154,155,156,157,158,159,160,161,
  162,163,164,165,166,167,168,169,170,
  171,172,173,174,175,176,177,178,179,
  180,181,182,183,184,185,186,187,188,
  189,190,191,192,193,194,195,196,197,
  198,199,200,201,202
********************************************************************************
** SURFACES ********************************************************************
********************************************************************************
*SURFACE, TYPE=ELEMENT, NAME=SURFACE
  _SURF_SURFACE_FACE1, S1
  _SURF_SURFACE_FACE2, S2
  _SURF_SURFACE_FACE3, S3
  _SURF_SURFACE_FACE4, S4 
********************************************************************************
** SECTIONS ********************************************************************
********************************************************************************
*SOLID SECTION, ELSET=_MAT_INDENTER_MAT, MATERIAL=INDENTER_MAT
*RIGID BODY, REF NODE = REF_NODE, PIN NSET=RIGID_NODES
*END PART
**------------------------------------------------------------------------------
** ASSEMBLY
**------------------------------------------------------------------------------
*ASSEMBLY, NAME = ASSEMBLY
*INSTANCE, NAME = I_SAMPLE, PART = P_SAMPLE
*END INSTANCE
*INSTANCE, NAME = I_INDENTER, PART= P_INDENTER
*END INSTANCE
*END ASSEMBLY
**------------------------------------------------------------------------------
** SURFACE INTERACTIONS
**------------------------------------------------------------------------------
*SURFACE INTERACTION, NAME = SURF_INT
*FRICTION
0.0,
*SURFACE BEHAVIOR, PRESSURE-OVERCLOSURE = HARD
*CONTACT PAIR, INTERACTION = SURF_INT, SUPPLEMENTARY CONSTRAINTS = NO, TYPE= NODE TO SURFACE
I_SAMPLE.SURFACE, I_INDENTER.SURFACE
**------------------------------------------------------------------------------
** MATERIALS
**------------------------------------------------------------------------------
********************************************************************************
** ARGIOPE MATERIAL ElasticPerfectlyPlastic
********************************************************************************
*MATERIAL, NAME = MATRIX_MAT
*ELASTIC
  0.1, 0.3
*PLASTIC
0.001,0.0
********************************************************************************
** ARGIOPE MATERIAL Elastic
********************************************************************************
*MATERIAL, NAME = INDENTER_MAT
*ELASTIC
  1.0, 0.3
********************************************************************************
** ARGIOPE MATERIAL Elastic
********************************************************************************
*MATERIAL, NAME = FIBRE_MAT
*ELASTIC
  0.4, 0.3
**------------------------------------------------------------------------------
** STEPS
**------------------------------------------------------------------------------
**------------------------------------------------------------------------------
** STEP: LOADING1
**------------------------------------------------------------------------------
*STEP, NAME = LOADING1, NLGEOM = YES, INC=1000000
*STATIC
0.01, 1.0, 1e-08, 0.01
*BOUNDARY, OP=NEW
I_SAMPLE.AXIS, 1, 1
I_SAMPLE.BOTTOM, 1, 3
I_INDENTER.AXIS, 1, 1
I_INDENTER.REF_NODE, 4, 6 
I_INDENTER.REF_NODE, 2, 2, -0.2
*RESTART, WRITE, FREQUENCY = 0
*OUTPUT, FIELD, FREQUENCY = 99999
*NODE OUTPUT
COORD, U, 
*NODE OUTPUT, NSET=I_INDENTER.REF_NODE
U
*ELEMENT OUTPUT, ELSET=I_SAMPLE.ALL_ELEMENTS, DIRECTIONS = YES
LE, EE, PE, PEEQ, S, 
*ELEMENT OUTPUT, ELSET=I_INDENTER.ALL_ELEMENTS, DIRECTIONS = YES
LE, EE, PE, PEEQ, S, 
*OUTPUT, HISTORY
*ENERGY OUTPUT
ALLFD, ALLWK
*ENERGY OUTPUT, ELSET=I_SAMPLE.ALL_ELEMENTS
ALLPD, ALLSE
*ENERGY OUTPUT, ELSET=I_INDENTER.ALL_ELEMENTS
ALLPD, ALLSE
*CONTACT OUTPUT, NSET=I_SAMPLE.SURFACE
CPRESS
*NODE OUTPUT, NSET=I_INDENTER.REF_NODE
U2, RF2, CF2
*NODE OUTPUT, NSET=I_INDENTER.TIP_NODE
U2
*NODE OUTPUT, NSET = I_SAMPLE.SURFACE
COOR1, COOR2, COOR3
*END STEP
**------------------------------------------------------------------------------
** STEP: UNLOADING1
**------------------------------------------------------------------------------
*STEP, NAME = UNLOADING1, NLGEOM = YES, INC=1000000
*STATIC
0.01, 1.0, 1e-08, 0.01
*BOUNDARY, OP=NEW
I_SAMPLE.AXIS, 1, 1
I_SAMPLE.BOTTOM, 1, 3
I_INDENTER.AXIS, 1, 1
I_INDENTER.REF_NODE, 4, 6 
*CLOAD
I_INDENTER.REF_NODE, 2, 0.0
*RESTART, WRITE, FREQUENCY = 0
*OUTPUT, FIELD, FREQUENCY = 99999
*NODE OUTPUT
COORD, U, 
*NODE OUTPUT, NSET=I_INDENTER.REF_NODE
U
*ELEMENT OUTPUT, ELSET=I_SAMPLE.ALL_ELEMENTS, DIRECTIONS = YES
LE, EE, PE, PEEQ, S, 
*ELEMENT OUTPUT, ELSET=I_INDENTER.ALL_ELEMENTS, DIRECTIONS = YES
LE, EE, PE, PEEQ, S, 
*OUTPUT, HISTORY
*ENERGY OUTPUT
ALLFD, ALLWK
*ENERGY OUTPUT, ELSET=I_SAMPLE.ALL_ELEMENTS
ALLPD, ALLSE
*ENERGY OUTPUT, ELSET=I_INDENTER.ALL_ELEMENTS
ALLPD, ALLSE
*CONTACT OUTPUT, NSET=I_SAMPLE.SURFACE
CPRESS
*NODE OUTPUT, NSET=I_INDENTER.REF_NODE
U2, RF2, CF2
*NODE OUTPUT, NSET=I_INDENTER.TIP_NODE
U2
*NODE OUTPUT, NSET = I_SAMPLE.SURFACE
COOR1, COOR2, COOR3
*END STEP
**------------------------------------------------------------------------------
** STEP: RELOADING1
**------------------------------------------------------------------------------
*STEP, NAME = RELOADING1, NLGEOM = YES, INC=1000000
*STATIC
0.01, 1.0, 1e-08, 0.01
*BOUNDARY, OP=NEW
I_SAMPLE.AXIS, 1, 1
I_SAMPLE.BOTTOM, 1, 3
I_INDENTER.AXIS, 1, 1
I_INDENTER.REF_NODE, 4, 6 
I_INDENTER.REF_NODE, 2, 2, -0.2
*RESTART, WRITE, FREQUENCY = 0
*OUTPUT, FIELD, FREQUENCY = 99999
*NODE OUTPUT
COORD, U, 
*NODE OUTPUT, NSET=I_INDENTER.REF_NODE
U
*ELEMENT OUTPUT, ELSET=I_SAMPLE.ALL_ELEMENTS, DIRECTIONS = YES
LE, EE, PE, PEEQ, S, 
*ELEMENT OUTPUT, ELSET=I_INDENTER.ALL_ELEMENTS, DIRECTIONS = YES
LE, EE, PE, PEEQ, S, 
*OUTPUT, HISTORY
*ENERGY OUTPUT
ALLFD, ALLWK
*ENERGY OUTPUT, ELSET=I_SAMPLE.ALL_ELEMENTS
ALLPD, ALLSE
*ENERGY OUTPUT, ELSET=I_INDENTER.ALL_ELEMENTS
ALLPD, ALLSE
*CONTACT OUTPUT, NSET=I_SAMPLE.SURFACE
CPRESS
*NODE OUTPUT, NSET=I_INDENTER.REF_NODE
U2, RF2, CF2
*NODE OUTPUT, NSET=I_INDENTER.TIP_NODE
U2
*NODE OUTPUT, NSET = I_SAMPLE.SURFACE
COOR1, COOR2, COOR3
*END STEP
**------------------------------------------------------------------------------
** STEP: LOADING2
**------------------------------------------------------------------------------
*STEP, NAME = LOADING2, NLGEOM = YES, INC=1000000
*STATIC
0.01, 1.0, 1e-08, 0.01
*BOUNDARY, OP=NEW
I_SAMPLE.AXIS, 1, 1
I_SAMPLE.BOTTOM, 1, 3
I_INDENTER.AXIS, 1, 1
I_INDENTER.REF_NODE, 4, 6 
I_INDENTER.REF_NODE, 2, 2, -0.4
*RESTART, WRITE, FREQUENCY = 0
*OUTPUT, FIELD, FREQUENCY = 99999
*NODE OUTPUT
COORD, U, 
*NODE OUTPUT, NSET=I_INDENTER.REF_NODE
U
*ELEMENT OUTPUT, ELSET=I_SAMPLE.ALL_ELEMENTS, DIRECTIONS = YES
LE, EE, PE, PEEQ, S, 
*ELEMENT OUTPUT, ELSET=I_INDENTER.ALL_ELEMENTS, DIRECTIONS = YES
LE, EE, PE, PEEQ, S, 
*OUTPUT, HISTORY
*ENERGY OUTPUT
ALLFD, ALLWK
*ENERGY OUTPUT, ELSET=I_SAMPLE.ALL_ELEMENTS
ALLPD, ALLSE
*ENERGY OUTPUT, ELSET=I_INDENTER.ALL_ELEMENTS
ALLPD, ALLSE
*CONTACT OUTPUT, NSET=I_SAMPLE.SURFACE
CPRESS
*NODE OUTPUT, NSET=I_INDENTER.REF_NODE
U2, RF2, CF2
*NODE OUTPUT, NSET=I_INDENTER.TIP_NODE
U2
*NODE OUTPUT, NSET = I_SAMPLE.SURFACE
COOR1, COOR2, COOR3
*END STEP
**------------------------------------------------------------------------------
** STEP: UNLOADING2
**------------------------------------------------------------------------------
*STEP, NAME = UNLOADING2, NLGEOM = YES, INC=1000000
*STATIC
0.02, 1.0, 1e-08, 0.02
*BOUNDARY, OP=NEW
I_SAMPLE.AXIS, 1, 1
I_SAMPLE.BOTTOM, 1, 3
I_INDENTER.AXIS, 1, 1
I_INDENTER.REF_NODE, 4, 6 
*CLOAD
I_INDENTER.REF_NODE, 2, 0.0
*RESTART, WRITE, FREQUENCY = 0
*OUTPUT, FIELD, FREQUENCY = 99999
*NODE OUTPUT
COORD, U, 
*NODE OUTPUT, NSET=I_INDENTER.REF_NODE
U
*ELEMENT OUTPUT, ELSET=I_SAMPLE.ALL_ELEMENTS, DIRECTIONS = YES
LE, EE, PE, PEEQ, S, 
*ELEMENT OUTPUT, ELSET=I_INDENTER.ALL_ELEMENTS, DIRECTIONS = YES
LE, EE, PE, PEEQ, S, 
*OUTPUT, HISTORY
*ENERGY OUTPUT
ALLFD, ALLWK
*ENERGY OUTPUT, ELSET=I_SAMPLE.ALL_ELEMENTS
ALLPD, ALLSE
*ENERGY OUTPUT, ELSET=I_INDENTER.ALL_ELEMENTS
ALLPD, ALLSE
*CONTACT OUTPUT, NSET=I_SAMPLE.SURFACE
CPRESS
*NODE OUTPUT, NSET=I_INDENTER.REF_NODE
U2, RF2, CF2
*NODE OUTPUT, NSET=I_INDENTER.TIP_NODE
U2
*NODE OUTPUT, NSET = I_SAMPLE.SURFACE
COOR1, COOR2, COOR3
*END STEP

